version 2
run myTictoc-0-20231220-21:37:05-23084
attr configname myTictoc
attr datetime 20231220-21:37:05
attr experiment myTictoc
attr inifile omnetpp.ini
attr iterationvars ""
attr iterationvarsf ""
attr measurement ""
attr network myTictoc
attr processid 23084
attr repetition 0
attr replication #0
attr resultdir results
attr runnumber 0
attr seedset 0
param myTictoc.n 2
param myTictoc.tic_0[*].delayTime truncnormal(1s,0.5s)

vector 0 myTictoc.tic_3[3] hopCount:vector ETV
attr interpolationmode none
attr source arrival
attr title "hop count, vector"
vector 1 myTictoc.tic_3[2] hopCount:vector ETV
attr interpolationmode none
attr source arrival
attr title "hop count, vector"
vector 2 myTictoc.tic_3[0] hopCount:vector ETV
attr interpolationmode none
attr source arrival
attr title "hop count, vector"
vector 3 myTictoc.tic_3[4] hopCount:vector ETV
attr interpolationmode none
attr source arrival
attr title "hop count, vector"
vector 4 myTictoc.tic_3[1] hopCount:vector ETV
attr interpolationmode none
attr source arrival
attr title "hop count, vector"
vector 5 myTictoc.tic_3[5] hopCount:vector ETV
attr interpolationmode none
attr source arrival
attr title "hop count, vector"
0	74	3.9	39
0	142	7.9	5
0	248	13.3	53
0	310	16.1	12
0	312	16.3	1
0	388	19.9	8
0	556	28.7	33
0	762	39.7	37
0	962	49.7	9
0	1084	56.5	17
0	1102	57.3	6
0	1240	64.7	9
0	1264	66.3	7
0	1343	70.3	8
0	1554	82.3	5
0	1728	91.5	2
0	1838	97.1	7
0	1966	103.7	2
0	2061	108.7	4
0	2098	110.7	2
0	2283	120.7	1
0	2438	128.3	4
0	2506	132.3	13
0	2658	139.5	4
0	2710	141.9	3
0	2834	148.7	19
0	2912	152.7	28
0	3040	159.7	17
0	3240	170.5	26
0	3376	178.1	2
0	3424	181.1	6
0	3570	188.7	6
0	3660	193.1	4
0	3790	200.5	16
0	3822	202.1	8
0	3908	206.1	3
0	3914	206.3	1
0	4040	213.3	23
0	4196	221.7	1
0	4326	228.1	3
0	4672	246.3	12
0	4752	250.7	3
0	5054	267.9	5
0	5097	270.3	13
0	5188	275.1	42
0	5210	276.5	5
0	5252	278.5	4
0	5292	280.7	10
0	5764	303.9	28
0	5972	314.7	24
0	5992	315.7	6
0	6026	317.5	2
0	6058	319.3	11
0	6164	324.9	6
0	6255	330.1	23
0	6400	337.1	2
0	6526	343.9	3
0	6552	345.3	1
0	6608	348.9	11
0	6884	363.3	6
0	6984	368.3	43
0	6994	368.7	2
0	7091	373.5	16
0	7162	377.5	7
0	7262	382.9	21
0	7454	393.3	3
0	7768	408.9	1
0	7838	412.3	7
0	7906	416.3	6
0	7954	418.9	18
0	8030	423.3	17
0	8104	427.1	8
0	8248	434.5	6
0	8290	436.5	7
0	8480	446.5	23
0	8574	451.7	7
0	8674	456.7	36
0	8702	458.1	3
0	8797	463.7	2
0	8814	464.9	8
0	8870	467.9	13
0	9089	480.3	7
0	9196	486.1	3
0	9434	498.7	16
0	9599	506.9	39
0	9642	508.9	6
0	9902	521.7	36
0	9940	523.9	9
0	10132	533.3	1
0	10170	535.5	17
0	10211	538.1	3
0	10382	547.1	3
0	10762	566.9	26
0	11048	582.9	51
0	11142	587.3	9
0	11330	597.5	3
0	11404	601.5	3
0	11514	607.3	3
0	11696	617.1	1
0	11746	620.1	6
0	11760	621.1	3
0	11836	625.1	23
0	11944	630.5	18
0	12080	637.5	3
0	12152	641.1	25
0	12164	641.7	5
0	12208	644.1	2
0	12316	649.7	3
0	12352	652.1	19
0	12487	659.1	25
0	12496	659.9	3
0	12530	661.9	7
0	12632	667.7	29
0	12750	673.9	8
0	12784	675.5	12
0	12818	677.3	3
0	13086	691.1	1
0	13402	708.1	15
0	13556	716.7	6
0	13886	732.9	9
0	14030	741.7	9
0	14168	749.9	5
0	14250	754.1	19
0	14389	761.1	31
0	14407	761.9	6
0	14482	766.1	8
0	14628	773.5	14
0	14666	775.7	13
0	14698	777.9	1
0	14742	780.1	5
0	14827	784.9	13
0	14970	792.1	25
0	15053	796.9	7
0	15122	800.5	13
0	15222	805.7	13
0	15262	807.5	15
0	15296	809.1	6
0	15335	810.9	11
0	15452	817.3	15
0	15472	818.3	6
0	15542	822.3	17
0	15568	824.1	4
0	15610	826.1	15
0	15738	832.9	21
0	15762	834.1	6
0	15775	834.7	5
0	15804	836.1	5
0	15964	845.1	5
0	16100	851.9	23
0	16162	855.1	9
0	16246	858.9	2
0	16319	863.3	3
0	16378	866.1	10
0	16419	868.3	2
0	16450	870.3	5
0	16564	875.9	5
0	16670	880.9	7
0	16678	881.3	3
0	16803	888.1	2
0	16920	894.5	2
0	17036	900.3	19
0	17090	903.1	13
0	17166	907.1	31
0	17212	909.5	13
0	17232	910.5	9
0	17342	916.5	24
0	17554	927.3	7
0	17572	928.3	8
0	17686	935.3	5
0	17828	943.1	5
0	17870	945.5	22
0	17897	946.9	6
0	18060	956.1	1
0	18118	958.9	5
0	18286	967.3	11
0	18411	974.3	31
0	18430	975.3	7
0	18480	977.7	3
0	18726	990.7	20
0	18846	997.1	13
0	18966	1003.7	29
0	19144	1013.1	4
0	19218	1016.7	34
0	19362	1023.7	2
0	19384	1024.7	4
0	19396	1025.5	7
0	19462	1029.1	6
0	19860	1050.5	7
0	19883	1051.5	7
0	19930	1053.7	3
0	20070	1061.3	14
0	20210	1069.9	13
0	20420	1080.9	9
0	20478	1083.9	4
0	20534	1086.5	5
0	20864	1103.1	24
0	20960	1108.1	31
0	20980	1109.3	7
0	21015	1111.3	4
0	21110	1116.9	3
0	21182	1121.3	11
0	21264	1125.3	26
0	21480	1136.9	6
0	21846	1156.7	3
0	22229	1177.1	14
0	22614	1196.9	31
0	22716	1202.7	15
0	23060	1220.7	11
0	23234	1229.3	7
0	23602	1248.5	9
0	23948	1265.9	26
0	24062	1272.1	14
0	24158	1277.7	13
0	24248	1283.5	4
0	24374	1289.5	9
0	24744	1308.7	23
0	24842	1313.7	40
0	24858	1314.9	9
0	24872	1315.5	5
0	24954	1319.7	7
0	25062	1325.3	7
0	25279	1336.1	3
0	25324	1338.5	2
0	25360	1340.5	19
0	25470	1346.7	1
0	25704	1358.5	18
0	25756	1361.7	7
0	26081	1378.9	2
0	26189	1384.7	53
0	26328	1392.1	9
0	26502	1402.1	6
0	26710	1412.9	5
0	26802	1417.7	15
0	26902	1422.5	1
0	26946	1424.9	3
0	27056	1430.7	15
0	27098	1432.7	12
0	27416	1449.5	29
0	27622	1460.7	6
0	27638	1461.5	6
0	27736	1466.3	4
0	27820	1470.9	2
0	27846	1472.1	3
0	28142	1487.5	2
0	28268	1494.1	2
0	28306	1496.7	5
0	28474	1505.9	5
0	28622	1514.1	11
0	28690	1517.7	9
0	28874	1527.7	15
0	29026	1535.3	5
0	29120	1540.1	24
0	29196	1543.7	14
0	29290	1548.1	15
0	29326	1550.1	6
0	29428	1555.3	29
0	29458	1556.7	4
0	29532	1561.1	3
0	29720	1570.5	17
0	29764	1573.3	15
0	29864	1579.1	12
0	30044	1588.9	3
0	30567	1618.7	2
0	30674	1624.5	1
0	30728	1626.9	16
0	30752	1628.1	5
0	30840	1632.5	3
0	30914	1636.3	6
0	31106	1645.7	1
0	31268	1654.5	9
0	31346	1658.9	16
0	31422	1662.7	20
0	31598	1672.9	5
0	31626	1674.3	5
0	31678	1677.7	8
0	31828	1685.7	1
0	31962	1692.5	19
0	32399	1716.5	9
0	32520	1722.5	7
0	32572	1724.9	1
0	32788	1736.3	6
0	32836	1738.9	22
0	32876	1741.5	9
0	32962	1745.7	5
0	33318	1765.5	32
0	33388	1769.3	22
0	33580	1779.1	28
0	33732	1786.9	5
0	33766	1788.5	7
0	33784	1789.7	8
0	33848	1793.1	13
0	33888	1795.1	2
0	34278	1815.1	29
0	34384	1821.5	36
0	34474	1825.7	7
0	34584	1831.5	8
0	34630	1834.1	17
0	34674	1836.1	11
0	34892	1848.1	4
0	34962	1852.3	13
0	35342	1871.3	40
0	35480	1878.5	49
0	35508	1880.1	9
0	35552	1882.1	9
0	35588	1884.1	5
0	35680	1888.9	22
0	35764	1894.1	41
0	35794	1895.9	1
0	35988	1906.1	27
0	36136	1914.5	31
0	36242	1919.7	27
0	36450	1931.1	9
0	36740	1946.7	2
0	37424	1982.3	7
0	37506	1986.3	12
0	37536	1987.7	7
0	37704	1996.3	22
0	37922	2007.1	44
0	38118	2018.3	3
0	38291	2027.7	5
0	38546	2042.1	9
0	39034	2069.7	1
0	39119	2073.5	3
0	39248	2080.1	42
0	39347	2085.1	4
0	39486	2092.7	20
0	39513	2094.3	9
0	39556	2096.5	2
0	39582	2098.1	4
0	39596	2098.7	2
0	39686	2104.1	14
0	39747	2107.1	14
0	39814	2111.3	13
0	39864	2113.9	5
0	39868	2114.1	1
0	39924	2117.1	14
0	39986	2120.7	28
0	40116	2127.1	11
0	40254	2133.9	9
0	40336	2137.7	6
0	40408	2142.1	35
0	40586	2151.1	19
0	40952	2170.9	53
0	41064	2176.5	11
0	41178	2182.3	4
0	41190	2183.1	2
0	41196	2183.5	2
0	41572	2202.7	21
0	41874	2218.9	36
0	42022	2227.5	8
0	42118	2233.1	9
0	42646	2259.3	24
0	42698	2261.7	11
0	42726	2263.3	12
0	42790	2266.3	8
0	43220	2288.7	24
0	43302	2293.7	22
0	43404	2299.1	22
0	43432	2300.5	12
0	43492	2303.5	1
0	43616	2309.7	10
0	43665	2312.1	7
0	43727	2315.9	1
0	43846	2321.5	2
0	44084	2334.1	5
0	44360	2349.1	3
0	44422	2352.5	10
0	44657	2365.3	3
0	44892	2376.7	14
0	44944	2379.9	6
0	45064	2385.5	4
0	45287	2396.9	9
0	45388	2401.9	8
0	45466	2406.1	9
0	45588	2412.1	6
0	45726	2419.1	3
0	45762	2421.1	2
0	45769	2421.7	2
0	45960	2431.7	17
0	46126	2440.1	49
0	46194	2444.3	1
0	46202	2444.9	5
0	46308	2449.9	3
0	46362	2453.1	2
0	46372	2453.7	1
0	46424	2456.5	13
0	46518	2461.9	1
0	46602	2465.7	4
0	46626	2466.9	3
0	46718	2472.1	7
0	46842	2477.9	9
0	46890	2480.9	7
0	47046	2489.1	9
0	47374	2507.3	1
0	47524	2515.3	19
0	47552	2516.5	5
0	47605	2518.9	1
0	47724	2525.1	49
0	47752	2526.5	10
0	47952	2536.9	10
0	48046	2541.5	3
0	48268	2553.5	7
0	48716	2577.5	4
0	48756	2579.7	8
0	48800	2582.3	3
0	48888	2586.7	11
0	48936	2588.9	1
0	49026	2593.9	6
0	49082	2597.3	9
0	49158	2601.5	4
0	49310	2609.3	20
0	49400	2614.5	9
0	49458	2617.5	29
0	49684	2630.1	3
0	49705	2631.1	8
0	49960	2645.1	9
0	50030	2648.7	21
0	50072	2651.3	13
0	50210	2657.9	1
0	50434	2670.1	14
0	50562	2677.1	4
0	50788	2688.3	13
0	50918	2696.1	2
0	51002	2701.1	31
0	51014	2701.7	1
0	51058	2704.1	6
0	51076	2704.9	6
0	51694	2736.9	5
0	51766	2740.7	17
0	51938	2749.7	11
0	52122	2759.3	11
0	52126	2759.5	1
0	52216	2764.7	7
0	52432	2775.3	17
0	52446	2775.9	5
0	52478	2777.9	12
0	53130	2815.1	31
0	53180	2817.7	11
0	53426	2830.3	5
0	53470	2832.3	11
0	53540	2835.9	7
0	53640	2840.5	6
0	53800	2848.5	6
0	53830	2849.9	2
0	53848	2850.7	2
0	53856	2851.3	5
0	53972	2857.1	17
0	54118	2864.5	15
0	54254	2871.5	11
0	54390	2878.7	37
0	54429	2880.9	7
0	54493	2884.1	8
0	54559	2887.9	25
0	54656	2892.9	1
0	54698	2894.9	11
0	54700	2895.1	1
0	54724	2896.5	3
0	54742	2897.3	7
0	54822	2901.3	4
0	54946	2907.9	2
0	54966	2909.3	5
0	55008	2911.7	4
0	55152	2919.9	15
0	55369	2930.3	4
0	55469	2935.5	3
0	55520	2938.1	10
0	55524	2938.3	1
0	55594	2941.7	31
0	55948	2960.5	1
0	56134	2970.1	3
0	56165	2971.5	3
0	56236	2975.5	6
0	56324	2980.5	3
0	56382	2984.1	5
0	56454	2988.3	16
0	56850	3009.5	35
0	56950	3014.1	2
0	56980	3015.9	17
0	57172	3026.1	25
0	57313	3033.3	11
0	57387	3037.7	3
0	57616	3049.7	10
0	57648	3051.5	7
0	57664	3052.3	7
0	57802	3059.9	11
0	57815	3060.5	4
0	58036	3072.1	7
0	58338	3088.5	9
0	58470	3095.5	3
0	58482	3096.1	5
0	58742	3108.9	17
0	58950	3119.1	22
0	59064	3124.7	3
0	59244	3133.7	24
0	59256	3134.7	7
0	59662	3156.5	22
0	59826	3164.9	7
0	59892	3168.5	2
0	60196	3185.5	29
0	60345	3193.9	1
0	60474	3200.5	26
0	60634	3209.3	1
0	60680	3211.9	16
0	60758	3216.5	9
0	60892	3223.9	5
0	60927	3225.7	9
0	61110	3235.7	10
0	61252	3243.3	3
0	61284	3244.7	6
0	61409	3251.1	36
0	61718	3268.3	5
0	61728	3268.7	2
0	61806	3273.5	22
0	61994	3283.3	3
0	62016	3284.3	7
0	62104	3288.3	39
0	62170	3291.3	15
0	62224	3294.1	23
0	62250	3295.3	1
0	62280	3297.1	14
0	62347	3300.1	27
0	62492	3307.5	14
0	62554	3311.7	6
0	62616	3315.1	15
0	62710	3319.9	3
0	62744	3322.1	18
0	62776	3323.9	13
0	62965	3333.9	29
0	63209	3345.9	30
0	63218	3346.3	2
0	63266	3348.5	7
0	63410	3356.1	28
0	63412	3356.3	1
0	63534	3362.5	25
0	63564	3363.9	2
0	63670	3368.9	2
0	63788	3374.5	46
0	63820	3376.1	6
0	63920	3380.7	42
0	63980	3383.5	17
0	64154	3392.7	12
0	64372	3405.7	3
0	64442	3409.7	5
0	64488	3412.1	23
0	64522	3413.7	8
0	64688	3422.5	21
0	64742	3425.1	14
0	64770	3426.7	12
0	64798	3428.5	2
0	64954	3438.1	44
0	65156	3448.3	11
0	65274	3453.9	1
0	65411	3461.7	25
0	65534	3468.5	7
0	65596	3472.5	6
0	65626	3474.1	11
0	65734	3479.9	1
0	65993	3492.9	1
0	66058	3496.5	2
0	66150	3501.3	3
0	66152	3501.5	1
0	66168	3502.3	3
0	66492	3519.7	7
0	66604	3525.9	32
0	66742	3533.3	3
0	66828	3537.3	3
0	66890	3540.9	2
0	67136	3553.7	4
0	67180	3556.1	1
0	67242	3559.1	1
0	67496	3571.1	10
0	67502	3571.7	1
0	67634	3578.3	1
0	67724	3583.3	6
0	67838	3590.3	1
0	68074	3602.5	6
0	68130	3605.7	9
0	68153	3606.9	5
0	68578	3627.1	9
0	68724	3635.7	9
0	68952	3648.1	21
0	69004	3650.5	9
0	69217	3662.5	7
0	69248	3664.7	5
0	69363	3670.3	12
0	69414	3672.7	5
0	69438	3673.9	3
0	69458	3674.7	2
0	69504	3677.1	5
0	69566	3680.3	29
0	69584	3681.1	6
0	69588	3681.3	1
0	69704	3687.5	10
0	69898	3697.3	52
0	69992	3702.3	7
0	70175	3711.5	10
0	70271	3716.7	29
0	70395	3722.3	35
0	70574	3731.9	15
0	70626	3734.3	23
0	70862	3747.3	18
0	70928	3750.9	11
0	71080	3758.9	4
0	71186	3764.5	22
0	71296	3770.5	20
0	71354	3773.3	5
0	71484	3779.9	11
0	71676	3789.7	2
0	71702	3790.9	4
0	71746	3793.1	8
0	71830	3797.5	7
0	71858	3798.9	12
0	71892	3801.1	5
0	71946	3803.9	27
0	71972	3805.1	5
0	72036	3808.5	25
0	72142	3813.7	4
0	72162	3814.9	4
0	72398	3826.5	3
0	72424	3827.9	13
0	72522	3833.3	6
0	72584	3836.5	5
0	72763	3846.3	7
0	72880	3853.5	15
0	73058	3862.7	4
0	73080	3863.9	6
0	73160	3868.3	9
0	73290	3874.7	1
0	73358	3878.3	20
0	73452	3882.9	15
0	73594	3889.7	3
0	73642	3891.9	9
0	73650	3892.3	1
0	73816	3901.7	17
0	73976	3910.3	1
0	74044	3913.5	11
0	74546	3940.7	1
0	74714	3949.5	13
0	75052	3967.9	27
0	75104	3970.7	3
0	75160	3973.7	21
0	75322	3981.5	3
0	75362	3984.1	7
0	75464	3989.5	35
0	75580	3995.9	3
0	75642	3999.1	28
0	75676	4001.1	17
0	75826	4008.7	18
0	75976	4017.5	11
0	76050	4021.5	4
0	76054	4021.7	1
0	76280	4033.9	12
0	76320	4036.3	20
0	76360	4038.1	17
0	76876	4065.3	16
0	76995	4071.9	23
0	77266	4086.1	15
0	77328	4089.5	8
0	77448	4095.7	3
0	77778	4112.3	4
0	77834	4114.9	5
0	77920	4119.7	16
0	78028	4125.7	17
0	78170	4133.5	3
0	78258	4138.5	7
0	78364	4144.5	26
0	78372	4145.3	7
0	78434	4148.9	8
0	78722	4163.3	19
0	78726	4163.5	1
0	78868	4171.5	15
0	79014	4178.3	8
0	79074	4182.1	19
0	79142	4185.7	9
0	79234	4190.9	17
0	79494	4205.1	30
0	79618	4211.1	5
0	79690	4215.1	2
0	79806	4221.3	17
0	79838	4222.7	1
0	79882	4225.1	12
0	80014	4231.7	9
0	80034	4232.7	1
0	80144	4238.5	5
0	80210	4241.9	10
0	80344	4249.3	10
0	80604	4262.9	28
0	80626	4264.1	2
0	80679	4267.5	16
0	81076	4289.1	11
0	81088	4289.9	5
0	81188	4295.5	30
0	81240	4298.5	13
0	81245	4298.7	1
0	81296	4301.1	4
0	81318	4302.5	5
0	81362	4304.9	19
0	81812	4329.1	13
0	82001	4339.1	3
0	82172	4348.1	1
0	82302	4355.5	29
0	82382	4359.9	1
0	82480	4365.3	4
0	82502	4366.7	9
0	82540	4368.7	7
0	82600	4372.1	13
0	82614	4372.9	3
0	82830	4384.3	49
0	82958	4390.5	6
0	83012	4393.3	10
0	83167	4401.3	1
0	83238	4405.3	4
0	83284	4407.7	9
0	83342	4410.9	29
0	83470	4417.7	10
0	83482	4418.3	1
0	83578	4423.5	9
0	83686	4429.7	10
0	83805	4436.5	3
0	83850	4438.9	4
0	83944	4443.9	5
0	84288	4462.1	5
0	84368	4465.9	11
0	84378	4466.7	3
0	84402	4467.7	7
0	84550	4475.3	2
0	84638	4480.1	42
0	84664	4481.7	2
0	84958	4496.5	11
0	85076	4502.9	6
0	85246	4511.5	17
0	85364	4517.7	22
0	85368	4517.9	1
0	85468	4522.7	2
0	85580	4528.9	26
0	85744	4537.3	5
0	85748	4537.7	2
0	85770	4538.9	2
0	86134	4557.7	3
0	86306	4567.3	9
0	86466	4576.1	25
0	86530	4579.5	22
0	86708	4588.3	10
0	86765	4591.7	17
0	86776	4592.1	2
0	86928	4600.1	2
0	86940	4601.1	2
0	86982	4603.3	17
0	87322	4621.5	7
0	87368	4623.9	20
0	87420	4626.3	20
0	87544	4632.9	3
0	87586	4635.1	21
0	87774	4644.7	11
0	87848	4649.3	23
0	87892	4651.3	5
0	87928	4652.9	1
0	88102	4662.5	19
0	88222	4668.1	19
0	88268	4670.7	3
0	88470	4681.5	3
0	88650	4690.3	18
0	89010	4708.5	20
0	89234	4720.9	2
0	89412	4730.3	13
0	89434	4731.7	10
0	89530	4737.3	2
0	89784	4750.3	3
0	89856	4754.1	31
0	90060	4765.9	8
0	90322	4779.5	1
0	90648	4797.1	26
0	90660	4797.9	2
0	90674	4798.5	5
0	90716	4801.1	6
0	90776	4804.3	1
0	90836	4807.9	3
0	90878	4809.9	17
0	91092	4820.7	11
0	91124	4822.9	9
0	91162	4824.7	16
0	91304	4832.3	1
0	91446	4839.9	17
0	91612	4848.3	14
0	91714	4853.3	14
0	92026	4871.3	25
0	92056	4872.7	6
0	92130	4876.5	23
0	92204	4880.5	1
0	92262	4883.3	3
0	92300	4885.5	21
0	92384	4890.5	4
0	92726	4908.5	10
0	92846	4915.1	18
0	93048	4925.3	15
0	93170	4931.7	10
0	93212	4933.9	18
0	93440	4944.7	13
0	93550	4950.5	2
0	93554	4950.7	1
0	93586	4952.9	9
0	93642	4955.9	2
0	93702	4958.7	10
0	93784	4963.1	10
0	94106	4980.1	37
0	94148	4982.1	6
0	94206	4985.5	6
0	94272	4989.3	9
0	94324	4992.1	9
0	94606	5006.7	7
0	94644	5008.5	8
0	94670	5009.7	2
0	94784	5015.3	49
0	94968	5024.9	15
0	95053	5029.9	15
0	95364	5047.1	26
0	95374	5047.5	3
0	95428	5050.3	1
0	95608	5059.7	8
0	95630	5060.7	7
0	95682	5063.5	15
0	95706	5064.9	10
0	95730	5066.1	9
0	95774	5068.5	11
0	95814	5070.7	5
0	95957	5077.7	3
0	96180	5089.1	21
0	96210	5090.9	12
0	96260	5093.5	23
0	96288	5095.5	5
0	96326	5098.1	2
0	96474	5106.7	9
0	96567	5111.7	4
0	96794	5123.7	21
0	97016	5134.9	7
0	97080	5138.1	8
0	97272	5147.1	4
0	97412	5154.7	5
0	97608	5165.3	5
0	97636	5167.5	21
0	98012	5186.5	33
0	98188	5195.3	56
0	98305	5201.1	26
0	98471	5210.5	19
0	98720	5224.9	16
0	98782	5227.9	8
0	98896	5234.1	16
0	99072	5242.9	31
0	99084	5243.7	7
0	99142	5246.5	24
0	99214	5250.1	4
0	99327	5255.3	17
0	99450	5261.7	31
0	99530	5266.3	11
0	99560	5268.1	16
0	99658	5273.1	17
0	99766	5278.7	12
0	99850	5284.1	6
0	100220	5302.7	50
0	100278	5305.3	16
0	100458	5314.3	11
0	100506	5317.3	15
0	100622	5323.1	16
0	100894	5337.5	1
0	101222	5355.3	25
0	101242	5356.5	4
0	101464	5368.5	14
0	101718	5381.1	26
0	101879	5389.7	25
0	102074	5400.5	11
0	102202	5407.9	17
0	102552	5425.5	3
0	102820	5439.5	13
0	102864	5441.9	23
0	103580	5478.7	10
0	103658	5482.7	35
0	103775	5488.9	4
0	103938	5497.1	43
0	104092	5504.7	49
0	104194	5510.1	7
0	104208	5510.7	4
0	104232	5512.1	4
0	104266	5513.7	8
0	104272	5514.1	2
0	104368	5518.9	15
0	104384	5519.9	7
0	104452	5523.5	30
0	104522	5527.9	1
0	104578	5530.3	9
0	104620	5532.3	2
0	104706	5537.1	9
0	104830	5543.1	8
0	104882	5545.9	13
0	104970	5550.1	11
0	105086	5556.5	3
0	105172	5560.7	28
0	105428	5574.1	17
0	105688	5587.9	27
0	105816	5593.7	2
0	105828	5594.3	4
0	105846	5595.1	4
0	106028	5604.9	11
0	106200	5614.3	7
0	106218	5615.1	3
0	106322	5621.3	15
0	106342	5622.3	6
0	106618	5637.3	3
0	106721	5643.1	3
0	106968	5656.9	5
0	107030	5660.9	2
0	107088	5663.9	3
0	107110	5665.1	1
0	107306	5676.1	12
0	107314	5676.5	2
0	107558	5689.5	24
0	107581	5690.7	6
0	107674	5695.9	4
0	107752	5699.9	5
0	107904	5708.1	25
0	107915	5708.7	2
0	107974	5712.1	7
0	107983	5712.5	2
0	108256	5726.9	14
0	108438	5736.5	26
0	108558	5742.9	22
0	108588	5744.5	1
0	108670	5748.9	3
0	109302	5783.9	19
0	109336	5786.1	1
0	109340	5786.5	1
0	109394	5789.5	18
0	109462	5793.1	15
0	109494	5794.9	16
0	109548	5797.5	16
0	109618	5801.5	11
0	109696	5805.5	27
0	110044	5823.9	1
0	110230	5833.5	26
0	110444	5845.1	17
0	110482	5846.9	16
0	110688	5858.5	28
0	110766	5862.9	34
0	110833	5865.9	1
0	110904	5869.7	4
0	110908	5869.9	1
0	111014	5875.3	2
0	111207	5885.9	13
0	111237	5887.9	4
0	111372	5894.9	15
0	111464	5899.9	33
0	111496	5901.7	8
0	111526	5903.3	1
0	111680	5911.3	1
0	111924	5923.3	19
0	112158	5936.3	4
0	112300	5944.5	9
0	112334	5946.1	10
0	112583	5959.3	6
0	112676	5963.9	2
0	112910	5975.3	23
0	112966	5978.5	3
0	113050	5982.9	4
0	113230	5992.9	3
0	113338	5998.1	9
0	113596	6012.1	21
0	113698	6017.9	9
0	113872	6027.3	19
0	113984	6032.9	26
0	114086	6037.9	21
0	114600	6065.5	12
0	114666	6068.9	20
0	114784	6074.7	5
0	114793	6075.3	2
0	114806	6076.1	3
0	115016	6087.9	9
0	115356	6106.1	28
0	115446	6110.5	32
0	115570	6116.3	8
0	115776	6127.5	7
0	115802	6128.7	4
0	115994	6138.5	29
0	116150	6147.3	67
0	116239	6151.5	13
0	116453	6162.9	14
0	116580	6169.7	9
0	116616	6171.7	3
0	116632	6172.5	6
0	116796	6181.5	22
0	116822	6183.1	4
0	116894	6186.9	20
0	116998	6193.3	7
0	117100	6198.5	25
0	117142	6200.5	7
0	117182	6202.3	3
0	117204	6203.7	8
0	117289	6208.1	17
0	117506	6219.1	27
0	117560	6221.9	6
0	117684	6228.7	33
0	117814	6235.7	13
0	117824	6236.3	4
0	117838	6237.3	1
0	117899	6240.5	31
0	118194	6255.9	13
0	118254	6258.7	11
0	118268	6259.3	5
0	118434	6268.3	5
0	118656	6279.3	13
0	118884	6290.9	3
0	119038	6298.7	11
0	119090	6301.1	16
0	119224	6308.3	7
0	119268	6310.7	3
0	119346	6315.1	17
0	119394	6317.5	10
0	119454	6320.9	17
0	119534	6325.7	35
0	119604	6329.3	5
0	119630	6330.9	4
0	119766	6337.7	11
0	119962	6347.5	15
0	120062	6352.5	27
0	120328	6366.1	11
0	120375	6368.3	5
0	120470	6373.5	21
0	120571	6379.3	13
0	120686	6384.5	1
0	120728	6386.9	8
0	120788	6390.1	14
0	120950	6398.5	5
0	121132	6408.5	12
0	121238	6413.7	7
0	121398	6422.1	7
0	121450	6424.5	13
0	121544	6428.9	6
0	121584	6431.1	7
0	121614	6432.5	1
0	121640	6433.7	5
0	121748	6438.7	35
0	121942	6449.1	37
0	122054	6455.5	3
0	122502	6481.1	7
0	122564	6484.1	9
0	122642	6488.1	23
0	122702	6491.3	17
0	122730	6492.7	11
0	122794	6496.3	10
0	122862	6499.9	2
0	122914	6502.5	13
0	123052	6509.7	18
0	123060	6510.1	3
0	123150	6515.1	19
0	123216	6518.5	12
0	123280	6521.7	14
0	123366	6525.7	19
0	123384	6526.9	11
0	123408	6527.9	9
0	123454	6530.7	20
0	123805	6549.3	25
0	123908	6554.7	15
0	123998	6560.1	2
0	124066	6564.3	2
0	124140	6568.5	15
0	124354	6579.5	40
0	124404	6581.7	18
0	124460	6585.3	20
0	124508	6587.7	5
0	124750	6599.9	15
0	124969	6611.5	31
0	125033	6614.5	10
0	125086	6617.3	2
0	125150	6620.5	4
0	125258	6626.3	7
0	125424	6634.3	24
0	125445	6635.3	4
0	125533	6639.3	17
0	125828	6653.9	71
0	125970	6661.5	4
0	125988	6662.3	6
0	126016	6663.7	13
0	126286	6678.9	5
0	126370	6683.1	7
0	126574	6694.1	11
0	126612	6696.1	9
0	126686	6700.1	13
0	126738	6702.5	15
0	126756	6703.7	6
0	126784	6704.9	10
0	126830	6707.1	11
0	127178	6725.1	7
0	127234	6727.7	5
0	127340	6733.7	20
0	127376	6735.5	9
0	127524	6743.1	2
0	127558	6744.7	2
0	127670	6750.9	31
0	127739	6754.5	9
0	127864	6760.7	16
0	127880	6761.5	5
0	127938	6764.9	4
0	128004	6768.5	10
0	128132	6775.5	11
0	128332	6785.7	3
0	128398	6788.9	5
0	128536	6795.9	5
0	128767	6807.7	5
0	129054	6822.3	4
0	129244	6833.3	22
0	129250	6833.5	1
0	129284	6835.5	9
0	129442	6844.3	45
0	129540	6849.7	5
0	129624	6854.1	19
0	129878	6867.3	19
0	130058	6875.5	5
0	130106	6877.7	13
0	130222	6883.9	29
0	130238	6884.9	6
0	130242	6885.1	1
0	130392	6893.1	1
0	130540	6900.3	5
0	130664	6907.3	7
0	131174	6934.1	3
0	131222	6936.5	7
0	131464	6949.7	5
0	131628	6957.9	23
0	131768	6965.1	41
0	131894	6971.9	26
0	131935	6973.9	4
0	132213	6988.3	53
0	132218	6988.7	1
0	132280	6992.1	16
0	132482	7002.9	3
0	132554	7006.7	6
0	132675	7013.5	20
0	132878	7023.9	11
0	133196	7040.9	11
0	133270	7044.3	33
0	133302	7045.7	3
0	133800	7071.9	9
0	134032	7084.9	5
0	134142	7090.5	37
0	134269	7096.9	33
0	134530	7110.3	4
0	134628	7115.1	32
0	134656	7116.7	9
0	134900	7129.1	8
0	134948	7131.7	2
0	134986	7133.9	1
0	135018	7135.7	1
0	135040	7136.7	5
0	135262	7147.9	6
0	135322	7151.3	20
0	135396	7155.5	29
0	135670	7170.3	45
0	135784	7176.5	5
0	136024	7188.3	5
0	136116	7193.3	7
0	136134	7194.5	10
0	136412	7208.7	4
0	136416	7208.9	1
0	136567	7216.1	10
0	136882	7232.7	33
0	136898	7233.5	7
0	137192	7249.1	66
0	137214	7250.1	5
0	137396	7260.3	3
0	137437	7262.5	8
0	137498	7266.3	3
0	137668	7275.3	1
0	137766	7280.1	7
0	137916	7289.1	21
0	138254	7307.1	17
0	138366	7313.1	12
0	138522	7321.3	1
0	138605	7325.3	20
0	138692	7330.1	28
0	138850	7338.3	3
0	138860	7339.1	2
0	138926	7342.1	20
0	139010	7345.9	13
0	139046	7348.1	14
0	139054	7348.7	5
0	139268	7360.1	19
0	139302	7362.1	7
0	139318	7363.1	7
0	139412	7368.3	14
0	139540	7375.3	14
0	139578	7377.1	15
0	139830	7390.1	13
0	139960	7396.7	3
0	140216	7410.9	23
0	140262	7413.5	5
0	140460	7423.7	3
0	141126	7458.1	11
0	141204	7462.1	3
0	141236	7464.1	19
0	141268	7465.9	3
0	141292	7467.3	13
0	141588	7482.7	37
0	141614	7483.9	7
0	141874	7497.5	9
0	141908	7499.1	4
0	142000	7504.7	5
0	142345	7521.9	4
0	142486	7529.9	23
0	142576	7534.5	19
0	142843	7549.5	15
0	142870	7550.9	1
0	142880	7551.7	5
0	143004	7558.5	17
0	143086	7563.1	7
0	143172	7567.7	9
0	143258	7572.7	20
0	143262	7572.9	1
0	143346	7577.9	4
0	143398	7581.1	12
0	143522	7587.7	7
0	143714	7597.5	7
0	143825	7603.3	17
0	143866	7605.5	13
0	143979	7610.9	28
0	144004	7612.3	3
0	144010	7612.5	1
0	144114	7617.7	3
0	144392	7632.7	15
0	144410	7633.5	6
0	144468	7636.5	8
0	144558	7641.1	11
0	144744	7651.5	31
0	144800	7654.1	21
0	144933	7661.3	17
0	145194	7674.9	26
0	145260	7677.9	22
0	145332	7681.3	9
0	145408	7685.3	5
0	145568	7693.7	24
0	145672	7699.1	19
0	146062	7719.9	14
0	146198	7727.5	3
0	146412	7739.9	5
0	146508	7745.5	13
0	146520	7746.1	4
0	146922	7767.5	1
0	147183	7782.7	4
0	147220	7784.7	10
0	147438	7794.9	15
0	147628	7806.1	11
0	147744	7813.1	25
0	147848	7818.5	9
0	147914	7822.3	5
0	148006	7827.3	14
0	148132	7834.5	3
0	148176	7836.9	19
0	148198	7838.3	5
0	148202	7838.5	1
0	148252	7841.1	7
0	148308	7844.1	5
0	148608	7860.1	10
0	148914	7876.5	19
0	149076	7884.7	25
0	149166	7889.1	23
0	149322	7897.5	29
0	149332	7898.3	5
0	149852	7924.5	5
0	149877	7925.7	7
0	150016	7932.9	13
0	150206	7943.5	9
0	150482	7958.9	16
0	150718	7971.7	3
0	150770	7974.9	22
0	150886	7981.5	16
0	150954	7985.3	31
0	151038	7989.5	8
0	151210	7998.1	15
0	151314	8003.9	5
0	151354	8005.9	3
0	151480	8013.1	22
0	151518	8015.5	15
0	151610	8020.9	53
0	151626	8021.7	2
0	151659	8023.3	6
0	151772	8030.3	13
0	151900	8036.3	26
0	151921	8037.7	10
0	152022	8043.7	9
0	152072	8046.1	13
0	152440	8065.5	3
0	152445	8065.7	1
0	152692	8079.3	16
0	152728	8081.3	13
0	153372	8115.7	15
0	153377	8115.9	1
0	153642	8129.3	19
0	153676	8131.1	12
0	153720	8133.1	5
0	153792	8136.3	14
0	153814	8137.7	2
0	154000	8147.3	9
0	154206	8157.9	78
0	154372	8166.9	2
0	154478	8172.3	17
0	154726	8185.3	71
0	154730	8185.5	1
0	154992	8199.3	1
0	155082	8204.3	23
0	155176	8208.9	19
0	155300	8216.5	37
0	155430	8223.1	21
0	155610	8232.7	19
0	155630	8233.9	3
0	155764	8240.9	2
0	155914	8248.5	9
0	156091	8257.5	7
0	156102	8258.3	6
0	156122	8259.5	5
0	156163	8261.5	5
0	156342	8270.7	42
0	156366	8271.9	3
0	156502	8279.3	6
0	156562	8282.9	27
0	157060	8308.3	7
0	157082	8309.3	8
0	157282	8320.7	1
0	157291	8321.1	3
0	157332	8323.3	21
0	157542	8335.3	5
0	157806	8349.1	12
0	157964	8357.9	6
0	158063	8363.7	57
0	158090	8365.5	6
0	158095	8365.7	1
0	158210	8371.7	2
0	158550	8389.5	14
0	158620	8393.7	6
0	158768	8401.7	9
0	159160	8422.3	22
0	159288	8429.3	35
0	159354	8432.9	5
0	159854	8459.9	5
0	160034	8468.5	16
0	160042	8469.3	3
0	160104	8472.3	2
0	160430	8489.1	7
0	160496	8493.1	7
0	160540	8495.9	3
0	160712	8505.1	8
0	160730	8505.9	4
0	160810	8510.7	6
0	160896	8515.1	18
0	161188	8531.1	14
0	161248	8534.3	7
0	161292	8536.7	10
0	161302	8537.1	3
0	161396	8541.9	7
0	161418	8542.9	1
0	161562	8551.1	2
0	161730	8559.5	5
0	161828	8564.5	13
0	161982	8572.9	5
0	162044	8576.9	2
0	162204	8585.3	16
0	162240	8587.3	5
0	162412	8596.3	5
0	162430	8597.1	6
0	162464	8599.1	3
0	162562	8604.1	19
0	162692	8610.9	13
0	162868	8620.3	1
0	162936	8623.5	19
0	163126	8633.7	12
0	163216	8638.5	11
0	163355	8646.3	63
0	163380	8648.1	1
0	163476	8652.9	20
0	163536	8655.7	11
0	163614	8660.3	11
0	163842	8672.5	57
0	163846	8672.7	1
0	163882	8674.3	10
0	164086	8686.5	7
0	164187	8691.5	13
0	164228	8693.7	3
0	164245	8694.5	2
0	164364	8701.1	3
0	164408	8703.5	22
0	164474	8707.3	12
0	164508	8708.9	6
0	164578	8712.9	14
0	164750	8721.9	17
0	164798	8724.5	5
0	164864	8727.5	4
0	165000	8734.9	12
0	165070	8738.9	7
0	165358	8754.3	2
0	165446	8758.7	1
0	165528	8763.3	10
0	165568	8765.9	1
0	165638	8769.9	9
0	165790	8777.9	36
0	166046	8791.9	3
0	166396	8809.7	19
0	166401	8809.9	1
0	166494	8814.9	20
0	166794	8831.5	19
0	166830	8833.3	16
0	166888	8836.1	12
0	167028	8843.7	28
0	167156	8850.1	5
0	167320	8858.5	15
0	167498	8867.9	4
0	167672	8876.7	8
0	167706	8878.7	8
0	167722	8879.7	4
0	167777	8882.7	19
0	168120	8901.5	14
0	168250	8908.7	3
0	168342	8914.5	42
0	168376	8916.1	8
0	168484	8921.1	19
0	168710	8932.9	8
0	168714	8933.3	2
0	168810	8937.7	15
0	169106	8954.3	5
0	169154	8956.5	6
0	169216	8959.3	11
0	169368	8968.1	1
0	169516	8975.7	7
0	169658	8983.1	3
0	169722	8986.9	3
0	169750	8988.9	7
0	169784	8990.7	16
0	169900	8996.7	34
0	169976	9000.5	7
0	170028	9002.9	13
0	170138	9009.1	15
0	170284	9016.9	12
0	170288	9017.1	1
0	170365	9020.9	5
0	170448	9025.5	25
0	170524	9029.7	7
0	170626	9035.5	18
0	170734	9041.3	15
0	170814	9046.5	3
0	171170	9064.9	7
0	171174	9065.1	1
0	171208	9067.3	13
0	171404	9076.9	8
0	171634	9088.9	1
0	171946	9105.5	11
0	171970	9106.7	10
0	171994	9108.1	4
0	172060	9111.1	10
0	172238	9120.1	25
0	172332	9124.5	5
0	172450	9130.7	9
0	172542	9135.3	4
0	173038	9161.5	50
0	173216	9170.9	1
0	173428	9181.7	3
0	173602	9191.3	59
0	173630	9192.5	10
0	173726	9198.1	35
0	173934	9210.3	7
0	174056	9217.1	11
0	174086	9218.5	3
0	174234	9225.9	7
0	174328	9230.5	18
0	174386	9233.9	11
0	174407	9234.9	3
0	174678	9248.7	12
0	174812	9255.3	5
0	174870	9258.7	18
0	175128	9271.9	8
0	175244	9277.7	12
0	175338	9282.1	6
0	175558	9293.1	3
0	175628	9296.7	7
0	175674	9299.1	3
0	175698	9300.1	8
0	175751	9303.3	11
0	175990	9315.1	23
0	176186	9324.9	33
0	176258	9328.7	12
0	176324	9332.5	4
0	176394	9335.7	20
0	176652	9348.7	6
0	176722	9352.3	9
0	176796	9355.7	26
0	177048	9367.9	8
0	177186	9375.1	25
0	177238	9377.5	3
0	177360	9383.9	21
0	177533	9392.7	1
0	177577	9395.5	17
0	177602	9397.1	8
0	178113	9424.9	35
0	178380	9438.5	3
0	178402	9439.7	3
0	178418	9440.5	3
0	178508	9445.1	9
0	178518	9445.7	5
0	178570	9448.5	3
0	178596	9449.7	9
0	178670	9453.9	25
0	178806	9460.7	8
0	178950	9468.1	30
0	179042	9472.9	1
0	179140	9477.9	5
0	179166	9479.5	6
0	179227	9482.3	18
0	179400	9491.5	28
0	179538	9499.5	21
0	179834	9514.5	77
0	179903	9517.9	13
0	179916	9518.7	4
0	180046	9525.1	9
0	180154	9531.1	8
0	180178	9532.5	11
0	180318	9540.1	2
0	180474	9547.7	15
0	180646	9557.3	31
0	181074	9577.7	5
0	181108	9579.3	7
0	181170	9582.9	12
0	181322	9590.5	10
0	181370	9593.3	1
0	181454	9598.1	19
0	181492	9599.9	16
0	181572	9603.7	3
0	181958	9624.7	6
0	182036	9628.7	3
0	182461	9652.7	1
0	182474	9653.3	2
0	182536	9656.9	17
0	182660	9663.5	15
0	182742	9667.9	2
0	182803	9671.5	5
0	182986	9681.7	1
0	183020	9683.7	3
0	183166	9690.9	28
0	183240	9694.9	5
0	183581	9711.9	3
0	183608	9713.1	9
0	183724	9718.9	2
0	183912	9728.7	14
0	183962	9731.3	4
0	184080	9737.9	2
0	184110	9739.5	13
0	184238	9746.3	12
0	184436	9756.7	30
0	184480	9758.9	21
0	184842	9777.9	6
0	184930	9782.9	8
0	185174	9796.5	6
0	185284	9802.1	44
0	185298	9802.9	7
0	185364	9806.5	15
0	185396	9807.9	13
0	185530	9815.3	5
0	185782	9828.3	45
0	185808	9829.9	8
0	185847	9832.3	1
0	185934	9836.7	15
0	186000	9840.5	21
0	186302	9857.1	9
0	186484	9866.9	23
0	186634	9875.5	1
0	186646	9876.3	5
0	186698	9878.9	9
0	186750	9881.5	1
0	186928	9890.9	26
0	186958	9892.5	7
0	187390	9916.1	8
0	187408	9917.3	3
0	187488	9921.3	9
0	187598	9927.5	3
0	187809	9938.1	7
0	187952	9945.7	7
0	188064	9951.3	7
0	188112	9954.1	3
0	188360	9967.3	39
0	188402	9969.7	10
0	188482	9974.1	2
0	188508	9975.7	4
0	188670	9985.3	12
0	189098	10008.5	5
0	189344	10020.7	2
0	189374	10022.1	1
0	189472	10027.3	21
0	189494	10028.3	2
0	189648	10036.1	27
0	189736	10040.5	2
0	189816	10044.1	33
0	189836	10045.3	7
0	189896	10048.9	10
0	189948	10051.1	5
0	190106	10059.1	19
0	190156	10062.1	14
0	190342	10072.1	7
0	190392	10074.7	19
0	190510	10080.9	6
0	190676	10089.7	51
0	190782	10095.3	43
0	190816	10096.9	2
0	190898	10100.7	3
0	190960	10104.5	5
0	191060	10110.3	30
0	191090	10111.7	12
0	191220	10119.1	51
0	191372	10127.9	15
0	191414	10130.1	18
0	191468	10133.1	11
0	191541	10136.7	3
0	191724	10146.7	2
0	191998	10160.7	13
0	192008	10161.3	5
0	192110	10166.3	2
0	192124	10166.9	2
0	192313	10176.7	21
0	192354	10178.9	19
0	192536	10187.3	31
0	192707	10196.7	19
0	192774	10200.9	5
0	192798	10202.1	11
0	192894	10207.5	17
0	193110	10219.1	17
0	193144	10220.9	16
0	193428	10236.3	21
0	193524	10241.9	8
0	193656	10249.5	51
0	193854	10259.1	21
0	194004	10267.5	6
0	194116	10272.9	3
0	194430	10289.5	9
0	194492	10292.3	3
0	194732	10304.7	14
0	194764	10306.5	3
0	194790	10308.1	7
0	194806	10308.9	7
0	194828	10310.3	12
0	194851	10311.7	11
0	194944	10316.7	6
0	195117	10325.5	16
0	195144	10327.1	15
0	195311	10336.1	2
0	195324	10336.9	7
0	195402	10340.9	6
0	195502	10346.1	3
0	195520	10347.1	8
0	195596	10351.1	13
0	195614	10352.1	8
0	195782	10361.1	8
0	196318	10389.3	15
0	196381	10392.9	5
0	196554	10402.5	22
0	196926	10421.5	14
0	197094	10429.9	8
0	197208	10435.9	8
0	197222	10436.7	5
0	197258	10438.9	12
0	197344	10443.3	12
0	197576	10455.3	12
0	197722	10463.1	7
0	197990	10477.3	9
0	198038	10480.3	5
0	198140	10485.7	5
0	198424	10499.5	9
0	198496	10503.1	12
0	198774	10518.1	17
0	198848	10521.5	8
0	199318	10546.3	25
0	199332	10546.9	3
0	199476	10554.5	11
0	199697	10566.3	15
1	76	4	1
1	132	7.4	7
1	143	8	1
1	311	16.2	1
1	995	51.4	4
1	1058	54.8	2
1	1266	66.4	1
1	1346	70.4	1
1	1371	71.6	10
1	1543	81.6	1
1	1962	103.4	1
1	2082	110	1
1	2280	120.6	4
1	2440	128.4	1
1	2604	137	1
1	2648	139	1
1	2712	142	1
1	2738	143.2	1
1	3041	159.8	1
1	3143	165.6	6
1	3284	172.8	5
1	3301	173.8	2
1	3426	181.2	1
1	3791	200.6	1
1	3842	203	1
1	3911	206.2	1
1	3925	207.2	7
1	4055	214.2	2
1	4086	216	1
1	4194	221.6	1
1	4506	237.6	6
1	4674	246.4	1
1	4780	252.4	4
1	4788	252.8	2
1	4798	253.2	3
1	4840	255.2	9
1	4937	261	10
1	5055	268	1
1	5201	276	4
1	5384	285.2	4
1	5441	288.2	1
1	5666	299	12
1	6027	317.6	1
1	6128	323.2	1
1	6417	338	1
1	6467	341	2
1	6551	345.2	4
1	7217	380.8	10
1	7386	390	6
1	7765	408.8	2
1	7839	412.4	1
1	7956	419	1
1	8171	430.4	4
1	8322	438.2	4
1	8438	444.2	4
1	8508	448	7
1	8575	451.8	1
1	8787	463	1
1	8833	466	4
1	9188	485.4	4
1	9197	486.2	1
1	9240	488.6	6
1	9395	496.8	1
1	9520	503	6
1	9746	513.6	9
1	9823	517.8	3
1	9962	524.8	5
1	10005	527	1
1	10032	528.4	2
1	10055	529.4	8
1	10129	533.2	7
1	10171	535.6	1
1	10203	537.4	1
1	10207	537.8	1
1	10214	538.2	1
1	10409	548.4	2
1	10556	556.2	14
1	10764	567	1
1	10959	577.8	6
1	11074	584.2	1
1	11104	585.6	10
1	11112	586	3
1	11122	586.4	3
1	11166	588.4	1
1	11313	596.6	2
1	11396	601.2	8
1	11586	611	2
1	11615	612.4	6
1	11694	617	3
1	11698	617.2	1
1	11837	625.2	1
1	11850	626.2	2
1	11947	630.6	1
1	11994	632.8	2
1	12154	641.2	1
1	12195	643.2	7
1	12202	643.8	2
1	12310	649.4	2
1	12634	667.8	1
1	12787	675.6	1
1	12904	681.8	4
1	12922	682.6	4
1	13084	691	8
1	13207	697.8	2
1	13312	703.8	8
1	13358	705.8	2
1	13404	708.2	1
1	13460	711.6	2
1	13728	725.6	3
1	13952	737	2
1	14416	762.6	3
1	14458	764.6	6
1	14630	773.6	1
1	14696	777.8	2
1	14771	781.6	2
1	14798	783.6	2
1	14856	786.2	4
1	15124	800.6	1
1	15264	807.6	1
1	15630	827	1
1	15655	828.6	3
1	15684	830.2	2
1	15764	834.2	1
1	15794	835.6	4
1	15817	837	1
1	15966	845.2	1
1	16248	859	1
1	16352	864.8	2
1	16442	869.8	8
1	16672	881	1
1	16717	883.4	4
1	16756	885.6	1
1	16792	887.2	2
1	16806	888.2	1
1	16917	894.2	3
1	17214	909.6	1
1	17392	919.4	1
1	17534	926.2	8
1	17622	931.4	2
1	17707	936.8	4
1	18021	953.8	2
1	18059	956	16
1	18170	961.6	5
1	18262	966.2	4
1	18314	968.6	7
1	18333	969.6	4
1	18433	975.6	1
1	18583	983	20
1	18594	983.8	1
1	18872	998.6	4
1	19046	1008	1
1	19072	1009.2	2
1	19127	1012	4
1	19145	1013.2	1
1	19386	1024.8	1
1	19752	1044.8	2
1	19951	1055	2
1	19979	1056.6	2
1	20072	1061.4	1
1	20099	1063	2
1	20115	1064	4
1	20175	1067.8	4
1	20186	1068.6	1
1	20480	1084	1
1	20592	1089.6	3
1	20605	1090.2	4
1	20712	1095.6	2
1	20744	1097	2
1	20962	1108.2	1
1	21041	1113.2	2
1	21183	1121.4	1
1	21370	1131.4	1
1	21536	1140	4
1	21576	1142.2	4
1	21602	1143.4	2
1	21847	1156.8	1
1	21958	1163.4	2
1	22232	1177.2	1
1	22251	1178.4	1
1	22404	1186.4	1
1	22615	1197	1
1	22728	1203.2	2
1	23212	1228	1
1	23236	1229.4	1
1	23386	1237	3
1	23468	1241.6	1
1	23483	1242.6	1
1	23582	1247.6	2
1	23638	1250.2	6
1	23680	1252.4	6
1	23856	1260.8	3
1	23900	1263.2	2
1	24033	1270.4	5
1	24118	1275	4
1	24206	1281	3
1	24220	1282	3
1	24234	1282.6	2
1	24238	1282.8	1
1	24431	1293.2	2
1	24860	1315	1
1	25026	1323.4	14
1	25046	1324.6	2
1	25072	1325.8	2
1	25326	1338.6	1
1	25363	1340.8	1
1	25468	1346.6	4
1	25828	1365.2	2
1	25868	1367	13
1	25974	1373	2
1	26229	1387	3
1	26234	1387.4	2
1	26268	1389	5
1	26288	1390.2	5
1	26306	1391	5
1	26416	1397.6	6
1	26429	1398.2	1
1	26450	1399.2	2
1	26503	1402.2	1
1	26629	1408.2	4
1	26814	1418.2	3
1	26826	1418.6	1
1	26870	1421	2
1	26900	1422.4	9
1	26948	1425	1
1	27022	1428.8	1
1	27129	1434.2	2
1	27153	1435.6	1
1	27314	1444	4
1	27596	1459.6	5
1	27606	1460	1
1	27788	1469	6
1	27809	1470	8
1	27822	1471	1
1	27895	1474.8	1
1	27908	1475.4	1
1	27916	1475.8	2
1	28297	1496.2	14
1	28308	1496.8	1
1	28792	1523.6	2
1	28894	1529	4
1	29068	1537.2	2
1	29292	1548.2	1
1	29474	1557.4	3
1	29722	1570.6	1
1	29766	1573.4	1
1	29963	1584.4	10
1	30024	1588	6
1	30038	1588.6	1
1	30222	1599.4	4
1	30332	1605.6	1
1	30442	1611.8	1
1	30529	1616.4	1
1	30556	1618.2	1
1	30673	1624.4	4
1	30894	1635.4	12
1	31104	1645.6	4
1	31281	1655.2	5
1	31348	1659	1
1	31592	1672.4	6
1	31694	1678.6	2
1	31826	1685.6	9
1	31928	1690.6	1
1	31985	1693.6	3
1	32333	1713	10
1	32506	1721.8	5
1	32570	1724.8	5
1	32574	1725	1
1	32614	1727.2	2
1	32663	1729.6	4
1	32837	1739	1
1	32967	1746.2	3
1	33114	1754.2	4
1	33218	1760.2	1
1	33240	1761.2	4
1	33438	1772	13
1	33628	1781.4	2
1	33794	1790.2	2
1	34091	1805.4	1
1	34225	1812.2	8
1	34546	1829.4	2
1	34563	1830.4	2
1	34650	1835	4
1	34744	1840.4	2
1	35007	1854.8	7
1	35493	1879.2	1
1	35528	1881	2
1	35765	1894.2	1
1	35792	1895.8	4
1	35853	1899.2	16
1	36260	1920.8	1
1	36370	1927	4
1	36452	1931.2	1
1	36742	1946.8	1
1	36878	1953.4	2
1	37345	1978	4
1	37367	1979.4	7
1	37426	1982.4	1
1	37460	1984	8
1	37616	1991.6	9
1	38056	2014.4	1
1	38163	2020.6	4
1	38169	2021	3
1	38273	2026.6	4
1	38466	2037.2	1
1	38727	2052	3
1	38840	2058.2	5
1	38907	2062.2	1
1	38909	2062.4	1
1	39020	2069	1
1	39032	2069.6	4
1	39062	2071	6
1	39112	2073.2	4
1	39297	2082.6	6
1	39299	2082.8	1
1	39336	2084.6	2
1	39584	2098.2	1
1	39589	2098.4	1
1	39599	2099	1
1	39661	2102.6	12
1	39773	2109	2
1	39791	2110	7
1	39866	2114	1
1	39988	2120.8	1
1	40200	2131.4	1
1	40506	2147	3
1	40635	2153.6	2
1	40785	2161.2	1
1	40803	2162.4	4
1	40954	2171	1
1	41066	2176.6	1
1	41191	2183.2	1
1	41232	2185.2	3
1	41287	2188	1
1	41318	2189.4	1
1	41343	2191	4
1	41454	2196.8	4
1	41468	2197.4	2
1	41531	2200.6	3
1	41782	2214.6	3
1	41876	2219	1
1	41910	2221	1
1	42009	2226.6	1
1	42388	2246.4	2
1	42510	2252	11
1	42648	2259.4	1
1	42801	2266.8	1
1	43051	2280.2	4
1	43160	2285.6	9
1	43435	2300.8	1
1	43490	2303.4	6
1	43700	2314	3
1	43703	2314.2	1
1	43725	2315.8	7
1	43732	2316.2	1
1	43848	2321.6	1
1	43852	2321.8	1
1	44114	2335.8	6
1	44159	2338	2
1	44222	2341.4	2
1	44554	2359.6	6
1	44910	2378	2
1	45052	2385	4
1	45092	2386.8	2
1	45204	2392.4	1
1	45217	2393.2	7
1	45219	2393.4	1
1	45266	2396	8
1	45370	2401	1
1	45620	2413.6	6
1	45690	2417	1
1	45699	2417.6	2
1	45751	2420.4	2
1	45892	2428.2	6
1	46192	2444.2	7
1	46195	2444.4	1
1	46310	2450	1
1	46370	2453.6	3
1	46491	2460	1
1	46516	2461.8	3
1	46620	2466.6	1
1	46627	2467	1
1	46824	2477	2
1	47086	2491.2	2
1	47113	2492.8	1
1	47255	2501	4
1	47258	2501.2	1
1	47372	2507.2	7
1	47440	2511	2
1	47590	2518.2	12
1	47602	2518.8	1
1	47608	2519	1
1	47618	2519.6	2
1	47955	2537	1
1	48106	2545	2
1	48406	2560.6	1
1	48551	2568.8	8
1	48934	2588.8	1
1	49083	2597.4	1
1	49349	2611.8	6
1	49402	2614.6	1
1	49482	2619	2
1	49520	2621.2	2
1	49581	2624.8	1
1	49586	2625.2	1
1	49612	2626.4	1
1	49642	2627.8	3
1	49708	2631.2	1
1	49962	2645.2	1
1	49991	2646.6	4
1	50208	2657.8	4
1	50226	2658.6	4
1	50304	2663	5
1	50350	2665.4	5
1	50400	2668.6	2
1	50533	2675.6	5
1	50790	2688.4	1
1	50830	2690.8	2
1	50898	2694.8	4
1	50919	2696.2	1
1	50934	2697.2	2
1	51012	2701.6	2
1	51096	2705.8	2
1	51109	2706.4	1
1	51314	2717.2	1
1	51588	2731.6	6
1	51722	2738.6	1
1	51768	2740.8	1
1	51906	2747.8	1
1	51974	2751.4	1
1	52124	2759.4	1
1	52201	2764	4
1	52434	2775.4	1
1	52448	2776	1
1	52590	2784.6	1
1	52787	2795.2	1
1	52803	2796	4
1	52811	2796.6	1
1	52962	2805.4	6
1	52986	2806.8	1
1	53072	2812	2
1	53472	2832.4	1
1	53771	2846.8	2
1	53850	2850.8	1
1	53974	2857.2	1
1	54391	2878.8	1
1	54432	2881	1
1	54469	2883	2
1	54517	2885.4	11
1	54576	2888.6	4
1	54654	2892.8	5
1	54674	2893.8	2
1	54699	2895	1
1	54718	2896.2	3
1	54727	2896.6	1
1	54947	2908	1
1	54960	2908.8	2
1	54992	2911	1
1	55202	2922.2	4
1	55274	2925.8	1
1	55304	2927.2	11
1	55380	2931	5
1	55426	2933.2	8
1	55522	2938.2	1
1	55526	2938.4	1
1	55777	2951.6	3
1	55946	2960.4	2
1	56084	2967.4	8
1	56115	2969	3
1	56136	2970.2	1
1	56201	2973.8	2
1	56501	2991.4	4
1	56766	3005.2	8
1	56922	3012.8	2
1	56952	3014.2	1
1	57017	3017.6	1
1	57077	3021	3
1	57127	3023.6	1
1	57180	3026.4	1
1	57187	3026.8	2
1	57316	3033.4	1
1	57390	3037.8	1
1	57424	3039.4	1
1	57478	3042.2	2
1	57650	3051.6	1
1	57666	3052.4	1
1	57804	3060	1
1	57818	3060.6	1
1	57842	3061.8	3
1	58462	3095.2	2
1	58472	3095.6	1
1	58709	3107	5
1	58781	3110.8	5
1	59473	3147.2	4
1	59486	3148	6
1	60142	3182.6	6
1	60343	3193.8	1
1	60380	3195.4	1
1	60604	3208	3
1	60632	3209.2	3
1	60715	3214	2
1	60882	3223.4	3
1	60894	3224	1
1	60942	3226.6	1
1	60976	3228.4	1
1	61084	3234.2	3
1	61135	3237.2	1
1	61152	3238	2
1	61308	3246.2	1
1	61469	3254.4	5
1	61478	3255	2
1	61711	3267.8	8
1	61819	3274.4	2
1	61922	3279.6	5
1	61996	3283.4	1
1	62018	3284.4	1
1	62181	3291.8	1
1	62248	3295.2	1
1	62408	3303.2	2
1	62505	3308.4	2
1	62682	3318.6	1
1	62711	3320	1
1	62756	3322.6	2
1	62777	3324	1
1	62883	3330	8
1	63110	3341	2
1	63124	3341.6	1
1	63140	3342.8	1
1	63411	3356.2	1
1	63789	3374.6	1
1	64030	3386.2	5
1	64444	3409.8	1
1	64489	3412.2	1
1	64652	3420.4	6
1	64771	3426.8	1
1	64830	3430.6	1
1	64966	3438.8	2
1	65076	3444.6	2
1	65132	3447.2	1
1	65273	3453.8	12
1	65275	3454	1
1	65549	3469.6	4
1	65597	3472.6	1
1	65708	3478.4	6
1	65731	3479.8	2
1	65762	3481.2	9
1	65990	3492.8	1
1	66108	3498.8	8
1	66151	3501.4	1
1	66170	3502.4	1
1	66199	3504	1
1	66352	3511.8	2
1	66411	3515.2	5
1	66476	3519	1
1	66691	3530.4	10
1	66719	3532.2	4
1	66748	3533.6	1
1	66822	3537	5
1	66885	3540.4	4
1	66891	3541	1
1	67026	3547.8	2
1	67057	3550	6
1	67138	3553.8	1
1	67178	3556	5
1	67241	3559	15
1	67245	3559.4	1
1	67424	3567.4	5
1	67497	3571.2	1
1	67501	3571.6	2
1	67632	3578.2	3
1	67654	3579.6	1
1	67836	3590.2	2
1	68058	3601.8	11
1	68234	3611	1
1	68250	3611.6	5
1	68436	3619.8	2
1	68605	3628.6	1
1	68624	3629.6	1
1	68691	3633.6	1
1	68705	3634.6	2
1	68726	3635.8	1
1	68770	3638.2	1
1	69016	3651	1
1	69081	3654.4	2
1	69183	3660.2	6
1	69208	3661.8	6
1	69232	3663.6	3
1	69432	3673.6	4
1	69440	3674	1
1	69586	3681.2	1
1	69710	3687.8	1
1	69758	3690.4	1
1	69788	3691.8	3
1	69937	3699.4	3
1	69982	3701.6	1
1	69993	3702.4	1
1	70398	3722.4	1
1	70441	3724.4	2
1	70550	3730.4	5
1	70576	3732	1
1	70638	3734.8	2
1	70822	3745.4	2
1	70907	3749.4	6
1	70950	3752	4
1	71104	3760.2	11
1	71596	3785.8	6
1	71716	3791.6	3
1	71894	3801.2	1
1	72067	3810	3
1	72128	3813	2
1	72252	3819.4	1
1	72400	3826.6	1
1	72448	3829.4	3
1	72480	3831	3
1	72765	3846.4	1
1	72839	3850.8	2
1	72951	3857.2	2
1	73238	3872	5
1	73289	3874.6	2
1	73393	3880.2	1
1	73402	3880.6	2
1	73587	3889.4	1
1	73624	3891	2
1	73648	3892.2	1
1	73730	3897.4	2
1	73974	3910.2	3
1	74047	3913.6	1
1	74491	3936.8	6
1	74545	3940.6	5
1	74547	3940.8	1
1	74854	3957.8	2
1	74926	3961	5
1	75065	3968.8	1
1	75290	3979.6	4
1	75316	3981.2	4
1	75364	3984.2	1
1	75394	3986	6
1	75492	3990.8	7
1	75577	3995.6	2
1	75581	3996	1
1	75679	4001.2	1
1	75789	4006.6	4
1	75877	4011.8	8
1	75960	4016.4	2
1	76052	4021.6	1
1	76227	4030.8	4
1	76322	4036.4	1
1	76409	4040.6	2
1	76532	4046.8	8
1	76878	4065.4	1
1	77109	4078.2	4
1	77449	4095.8	1
1	77582	4102.2	2
1	77593	4102.8	1
1	77694	4108.4	2
1	78150	4132.4	1
1	78241	4137.4	4
1	78245	4137.8	2
1	78365	4144.6	1
1	78375	4145.4	1
1	78420	4147.8	4
1	78614	4158	4
1	78650	4159.6	5
1	78658	4160	3
1	78667	4160.6	1
1	78724	4163.4	1
1	78990	4177.2	3
1	79205	4189.2	4
1	79496	4205.2	1
1	79501	4205.4	1
1	79586	4209.6	10
1	79638	4212.4	4
1	79836	4222.6	2
1	79849	4223.2	1
1	79918	4227	7
1	80000	4230.8	9
1	80015	4231.8	1
1	80032	4232.6	4
1	80146	4238.6	1
1	80272	4245.2	5
1	80358	4250	1
1	80410	4253.2	1
1	80627	4264.2	1
1	80646	4265.2	7
1	80836	4276.6	2
1	80920	4280.8	7
1	81009	4285.6	2
1	81014	4286	2
1	81038	4287	2
1	81057	4288	9
1	81116	4291.8	9
1	81242	4298.6	1
1	81248	4298.8	1
1	81477	4311	2
1	81791	4327.8	4
1	81981	4337.8	1
1	82056	4342	3
1	82170	4348	2
1	82193	4349.8	4
1	82381	4359.8	2
1	82383	4360	1
1	82485	4365.8	2
1	82527	4368	1
1	82577	4370.8	3
1	82645	4374.4	2
1	82695	4377	7
1	82874	4386.4	2
1	82960	4390.6	1
1	83028	4394	1
1	83064	4395.6	10
1	83091	4397.2	1
1	83114	4398.4	2
1	83165	4401.2	4
1	83170	4401.4	1
1	83179	4402	2
1	83188	4402.6	5
1	83480	4418.2	3
1	83484	4418.4	1
1	83687	4429.8	1
1	83697	4430.4	1
1	83701	4430.8	1
1	83728	4432.2	1
1	83738	4432.6	1
1	83760	4434	10
1	83830	4438	5
1	83852	4439	1
1	83870	4440.2	6
1	83939	4443.4	12
1	83982	4446	4
1	84220	4458.6	1
1	84278	4461.6	3
1	84290	4462.2	1
1	84666	4481.8	1
1	84670	4482	1
1	84703	4483.6	2
1	84959	4496.6	1
1	85148	4507	6
1	85174	4508.2	5
1	85366	4517.8	1
1	85670	4533.8	3
1	85754	4538.2	3
1	85914	4546.8	10
1	86048	4553.4	5
1	86128	4557.4	16
1	86825	4594.6	2
1	86937	4600.8	3
1	87089	4609	2
1	87121	4611	2
1	87180	4614.2	2
1	87276	4619.4	5
1	87422	4626.4	1
1	87436	4627.4	8
1	87545	4633	1
1	87656	4638.4	2
1	87789	4645.8	8
1	87801	4646.6	2
1	87926	4652.8	3
1	87930	4653	1
1	87949	4654.2	3
1	87982	4656.2	4
1	88025	4658.2	2
1	88068	4660.6	2
1	88162	4665	1
1	88233	4668.8	5
1	88262	4670.4	13
1	88300	4672.2	2
1	88526	4684.4	2
1	88572	4686.8	1
1	88652	4690.4	1
1	88808	4698	4
1	88847	4700.2	9
1	88969	4706.2	5
1	89012	4708.6	1
1	89084	4712.6	2
1	89390	4729	4
1	89532	4737.4	1
1	89584	4739.8	1
1	90040	4765	10
1	90062	4766	1
1	90236	4775.2	7
1	90320	4779.4	2
1	90410	4784.4	1
1	90420	4784.8	3
1	90450	4786.2	1
1	90564	4792.6	1
1	90663	4798	1
1	90717	4801.2	1
1	90774	4804.2	2
1	90914	4811.6	9
1	90999	4816.2	4
1	91302	4832.2	4
1	91313	4832.8	2
1	91377	4836.2	9
1	91482	4841.6	1
1	91584	4846.6	2
1	91613	4848.4	1
1	91634	4849.6	2
1	91668	4851.2	2
1	91680	4851.8	2
1	91880	4862.6	3
1	91922	4865.4	8
1	92084	4874	2
1	92088	4874.2	1
1	92203	4880.4	2
1	92263	4883.4	1
1	92340	4887.8	1
1	92386	4890.6	1
1	92449	4893.8	2
1	92546	4898.4	6
1	92680	4905.6	5
1	92774	4911.4	2
1	92853	4915.6	1
1	93278	4937.4	22
1	93536	4949.8	4
1	93544	4950.2	1
1	93552	4950.6	1
1	93656	4956.6	1
1	93806	4964.2	5
1	93903	4969.6	4
1	93954	4972	9
1	93977	4973.2	4
1	94150	4982.2	1
1	94168	4983	4
1	94195	4984.8	6
1	94260	4988.4	6
1	94414	4996.2	4
1	94538	5003	2
1	94684	5010.4	2
1	94887	5020	2
1	94944	5023.4	10
1	95154	5035.2	2
1	95214	5038.6	2
1	95367	5047.2	1
1	95427	5050.2	3
1	95588	5058.8	2
1	95632	5060.8	1
1	95649	5062	1
1	95683	5063.6	1
1	95731	5066.2	1
1	95816	5070.8	1
1	95863	5073.2	6
1	95942	5077	8
1	96069	5083.6	3
1	96104	5085.6	1
1	96289	5095.6	1
1	96341	5099.2	5
1	96343	5099.4	1
1	96492	5107.6	4
1	96624	5114.6	8
1	96814	5124.6	3
1	97254	5146.2	3
1	97388	5153.6	4
1	97398	5154	2
1	97488	5158.8	2
1	97565	5162.8	5
1	97610	5165.4	1
1	97932	5182.8	2
1	97942	5183.2	3
1	98630	5220.2	1
1	98693	5223.2	1
1	98721	5225	1
1	98859	5232.2	1
1	99074	5243	1
1	99178	5248.6	13
1	99451	5261.8	1
1	99632	5271.4	8
1	99928	5288.2	2
1	100032	5293	4
1	100318	5307.2	3
1	100391	5311.2	4
1	100426	5312.8	2
1	100808	5333.4	4
1	100822	5334	1
1	100893	5337.4	4
1	100906	5338.2	1
1	101017	5344.2	12
1	101227	5355.8	2
1	101270	5357.8	9
1	101466	5368.6	1
1	101644	5377.4	4
1	101720	5381.2	1
1	101834	5387.2	2
1	101882	5389.8	1
1	101926	5392.2	2
1	102076	5400.6	1
1	102310	5413.2	2
1	102547	5425.2	2
1	102590	5427.6	2
1	102800	5438.2	7
1	102822	5439.6	1
1	102878	5442.6	3
1	102923	5445.2	5
1	103124	5456	6
1	103132	5456.4	1
1	103168	5458.4	4
1	103486	5473.6	3
1	103834	5491.6	2
1	104112	5505.6	6
1	104308	5516	8
1	104385	5520	1
1	104520	5527.8	1
1	104645	5533.6	1
1	104708	5537.2	1
1	104762	5539.6	2
1	104884	5546	1
1	105108	5557.4	1
1	105236	5564.4	2
1	105971	5601.6	2
1	106112	5609.8	2
1	106361	5623.6	2
1	106450	5628.4	1
1	106506	5631	2
1	106520	5631.6	1
1	106643	5639.2	1
1	107032	5661	1
1	107090	5664	1
1	107108	5665	4
1	107222	5671	15
1	107308	5676.2	1
1	107346	5678.4	2
1	107389	5680.4	3
1	107446	5683.6	6
1	107740	5699.4	2
1	107754	5700	1
1	107829	5704	2
1	107856	5705.6	6
1	108108	5719	2
1	108481	5738.8	4
1	108506	5740.4	14
1	108586	5744.4	9
1	108622	5746	1
1	108746	5753.2	2
1	108875	5760.6	2
1	109038	5769.4	2
1	109068	5771.2	2
1	109115	5774.4	14
1	109145	5776	5
1	109314	5784.8	1
1	109334	5786	3
1	109339	5786.4	1
1	109344	5786.8	1
1	109438	5791.6	2
1	109464	5793.2	1
1	109603	5800.4	4
1	109646	5802.8	5
1	109838	5813	5
1	110042	5823.8	3
1	110403	5843	2
1	110446	5845.2	1
1	110494	5847.4	1
1	110502	5847.8	3
1	110543	5850	2
1	110593	5853	4
1	110642	5855.6	2
1	110690	5858.6	1
1	110768	5863	1
1	110830	5865.8	1
1	110873	5868	2
1	110906	5869.8	1
1	111076	5878.8	4
1	111182	5884.6	2
1	111525	5903.2	2
1	111527	5903.4	1
1	111579	5906	1
1	111609	5907.8	1
1	111644	5909.6	5
1	111666	5910.6	2
1	111678	5911.2	2
1	111706	5912.8	8
1	111732	5914	11
1	111741	5914.4	3
1	111993	5926.6	4
1	112169	5937	4
1	112282	5943.2	2
1	112290	5943.6	3
1	112337	5946.2	1
1	112738	5966.8	4
1	112996	5980	3
1	113129	5987.6	6
1	113160	5989.4	1
1	113402	6001.6	2
1	113519	6007.6	10
1	114138	6040.6	2
1	114270	6047.6	7
1	114292	6049	3
1	114786	6074.8	1
1	114825	6077.2	2
1	114952	6084.6	2
1	114996	6087	6
1	115585	6117.6	4
1	115892	6133.4	11
1	115922	6134.8	1
1	115930	6135.2	1
1	115938	6135.6	1
1	116008	6139.2	4
1	116414	6160.8	4
1	116456	6163	1
1	116567	6168.8	8
1	116678	6175	3
1	116718	6177.2	4
1	117183	6202.4	1
1	117292	6208.2	1
1	117378	6212.6	2
1	117433	6215.2	1
1	117454	6216.4	1
1	117562	6222	1
1	117591	6223.4	6
1	117825	6236.4	1
1	117836	6237.2	6
1	117839	6237.4	1
1	118013	6246.6	2
1	118210	6256.6	1
1	118256	6258.8	1
1	118488	6271.2	7
1	118628	6278	3
1	118666	6279.8	3
1	118878	6290.6	1
1	118933	6293.6	2
1	119016	6297.6	1
1	119187	6306.2	8
1	119248	6309.8	2
1	119270	6310.8	1
1	119308	6312.6	3
1	119374	6316.4	2
1	119410	6318.4	1
1	119421	6319.2	1
1	119457	6321	1
1	119768	6337.8	1
1	119850	6342	1
1	119928	6346	5
1	119964	6347.6	1
1	120085	6353.6	4
1	120134	6356.2	6
1	120642	6382.6	5
1	120683	6384.4	1
1	120974	6399.6	2
1	121026	6402.4	2
1	121135	6408.6	1
1	121177	6410.6	1
1	121206	6412.2	2
1	121224	6413	7
1	121239	6413.8	1
1	121546	6429	1
1	121586	6431.2	1
1	121612	6432.4	3
1	121616	6432.6	1
1	121836	6443.6	4
1	121864	6444.8	2
1	121945	6449.2	1
1	122009	6452.6	2
1	122027	6454	2
1	122055	6455.6	1
1	122150	6461.2	7
1	122464	6478.6	1
1	122584	6485	1
1	122596	6485.6	3
1	123054	6509.8	1
1	123062	6510.2	1
1	123282	6521.8	1
1	123368	6525.8	1
1	123386	6527	1
1	123583	6537.6	8
1	123910	6554.8	1
1	124042	6563.2	2
1	124406	6581.8	1
1	124674	6596	4
1	124884	6607.4	2
1	124906	6608.4	2
1	125197	6622.8	3
1	125430	6634.6	1
1	125674	6646.8	2
1	125990	6662.4	1
1	126122	6669.8	4
1	126148	6671	5
1	126215	6674.8	5
1	126272	6678.2	4
1	126372	6683.2	1
1	126394	6684.2	6
1	126448	6686.6	1
1	126467	6687.6	5
1	126592	6695.2	5
1	126749	6703	2
1	126758	6703.8	1
1	126806	6706	1
1	127041	6718.4	2
1	127062	6719.4	3
1	127222	6727.2	1
1	127236	6727.8	1
1	127452	6739.4	6
1	127496	6741.8	4
1	127611	6747.8	11
1	127716	6753.4	1
1	128134	6775.6	1
1	128254	6781.8	4
1	128334	6785.8	1
1	128390	6788.4	3
1	128740	6806.4	3
1	128756	6807.2	1
1	128770	6807.8	1
1	129071	6823.4	2
1	129247	6833.4	1
1	129286	6835.6	1
1	129352	6839.8	5
1	129542	6849.8	1
1	129626	6854.2	1
1	129806	6863.6	1
1	130074	6876.2	2
1	130168	6881	4
1	130240	6885	1
1	130244	6885.2	1
1	130343	6890.4	14
1	130381	6892.4	1
1	130390	6893	1
1	130404	6894	2
1	130430	6895.2	2
1	130516	6899.2	2
1	130530	6899.8	5
1	130665	6907.4	1
1	130754	6912.6	1
1	130890	6920.4	10
1	131128	6932	4
1	131160	6933.4	5
1	131168	6933.8	1
1	131198	6935.2	2
1	131500	6951.6	11
1	131937	6974	1
1	132102	6982.6	8
1	132217	6988.6	1
1	132535	7005.8	1
1	132601	7009	4
1	133128	7037.8	4
1	133170	7039.8	5
1	133198	7041	1
1	133286	7045	2
1	133328	7047.2	2
1	133741	7068.4	4
1	133779	7070.6	2
1	133990	7082.6	1
1	134021	7084	1
1	134199	7093.6	1
1	134350	7101	6
1	134658	7116.8	1
1	134695	7118.8	6
1	134706	7119.4	3
1	134984	7133.8	3
1	135016	7135.6	1
1	135056	7137.8	2
1	135070	7138.4	5
1	135227	7146.2	2
1	135263	7148	1
1	135342	7152.6	1
1	135735	7173.6	4
1	135770	7175.6	3
1	135785	7176.6	1
1	135864	7180.2	6
1	136414	7208.8	1
1	136702	7223.2	2
1	136884	7232.8	1
1	136900	7233.6	1
1	137027	7239.6	4
1	137064	7242.2	2
1	137216	7250.2	1
1	137220	7250.4	1
1	137346	7258	1
1	137384	7259.8	1
1	137666	7275.2	4
1	137750	7279.4	6
1	137773	7280.6	1
1	137803	7282.4	3
1	137932	7290	6
1	137945	7290.8	5
1	138138	7301.4	11
1	138450	7317.4	10
1	138511	7320.4	4
1	138521	7321.2	5
1	138523	7321.4	1
1	138550	7322.8	3
1	138617	7326	1
1	138694	7330.2	1
1	138846	7338	14
1	138851	7338.4	1
1	138962	7343.6	1
1	139047	7348.2	1
1	139178	7355.2	1
1	139413	7368.4	1
1	139952	7396.4	1
1	140006	7399.2	2
1	140085	7403.8	5
1	140090	7404.2	1
1	140223	7411.2	1
1	140236	7411.8	5
1	140400	7420.6	4
1	140462	7423.8	1
1	140637	7433	2
1	140704	7437	5
1	141206	7462.2	1
1	141270	7466	1
1	141294	7467.4	1
1	141336	7469.6	3
1	141354	7470.4	1
1	141457	7476.2	3
1	141515	7479	6
1	141616	7484	1
1	141674	7487	2
1	142201	7515.2	6
1	142600	7535.6	4
1	142632	7537	8
1	142693	7540.8	1
1	142731	7542.8	2
1	142806	7547.6	2
1	142868	7550.8	2
1	143049	7561.2	2
1	143103	7564	2
1	143224	7570.4	8
1	143260	7572.8	1
1	143284	7574	7
1	143366	7579.2	5
1	143502	7586.8	4
1	143627	7592.8	1
1	143756	7599.8	1
1	143831	7603.8	1
1	143982	7611	1
1	143999	7612	1
1	144007	7612.4	1
1	144012	7612.6	1
1	144072	7615.8	5
1	144687	7648.4	2
1	144747	7651.6	1
1	144935	7661.4	1
1	145142	7672.2	3
1	145633	7697.2	2
1	145786	7705.2	8
1	145926	7712.8	2
1	145938	7713.4	1
1	145964	7714.6	10
1	146098	7721.8	1
1	146127	7723.4	3
1	146279	7732	2
1	146400	7739.4	10
1	146439	7741.6	1
1	146443	7742	3
1	146454	7742.6	4
1	146484	7744.2	3
1	146545	7747.2	9
1	146574	7748.8	7
1	146920	7767.4	6
1	147359	7791	1
1	147440	7795	1
1	147530	7799.8	10
1	147542	7800.6	1
1	147647	7807.4	1
1	147677	7809.2	3
1	147904	7821.8	2
1	147925	7823	3
1	147930	7823.4	2
1	148020	7828.4	7
1	148052	7829.8	1
1	148141	7835	2
1	148191	7837.8	1
1	148200	7838.4	1
1	148298	7843.6	4
1	148487	7853.8	7
1	148530	7856	3
1	148577	7858.4	8
1	148620	7861	2
1	148633	7861.8	5
1	148713	7865.6	1
1	148798	7870.4	2
1	148822	7871.4	3
1	149323	7897.6	1
1	149348	7899.4	2
1	149635	7913.8	1
1	149758	7919.8	2
1	149978	7930.8	5
1	149994	7931.6	3
1	150018	7933	1
1	150084	7936.8	2
1	150166	7941.6	2
1	150546	7963	2
1	150609	7966	3
1	150719	7971.8	1
1	150802	7976.4	11
1	150837	7978.8	4
1	150956	7985.4	1
1	150978	7986.4	4
1	151326	8004.6	3
1	151492	8014	1
1	151520	8015.6	1
1	151699	8026	4
1	151745	8029	1
1	151800	8031.8	1
1	151830	8033.2	2
1	151965	8040.4	5
1	151969	8040.8	1
1	152182	8051.2	3
1	152442	8065.6	1
1	152448	8065.8	1
1	152491	8068.2	1
1	152833	8087	4
1	153036	8097.8	10
1	153222	8107	2
1	153288	8110.4	1
1	153320	8112.2	5
1	153333	8112.8	4
1	153374	8115.8	1
1	153379	8116	1
1	153564	8125	1
1	153816	8137.8	1
1	153982	8146.4	1
1	154031	8148.8	5
1	154554	8176.6	3
1	154728	8185.4	1
1	154732	8185.6	1
1	154864	8192	4
1	154990	8199.2	8
1	154994	8199.4	1
1	155193	8210	2
1	155236	8212.8	1
1	155568	8230.8	4
1	155749	8240.2	4
1	156236	8265.2	2
1	156410	8274	1
1	156769	8293.6	6
1	156858	8298.6	2
1	156908	8301	4
1	157083	8309.4	1
1	157151	8313.8	2
1	157280	8320.6	1
1	157284	8320.8	1
1	157294	8321.2	1
1	157455	8330.2	6
1	157506	8333.4	3
1	157536	8334.8	2
1	157865	8353	4
1	157967	8358	1
1	158092	8365.6	1
1	158204	8371.4	10
1	158230	8372.6	1
1	158263	8374.4	12
1	158523	8387.6	3
1	158552	8389.6	1
1	158700	8398	1
1	158737	8400.2	6
1	158747	8400.8	4
1	159068	8417	2
1	159181	8423.8	6
1	159196	8424.8	1
1	159217	8425.8	4
1	159305	8430.4	7
1	159347	8432.4	3
1	159358	8433.2	1
1	159512	8441.8	2
1	159555	8444.2	5
1	159654	8449.4	2
1	159732	8453.8	5
1	159896	8462.2	2
1	159950	8464.8	18
1	159965	8465.4	5
1	159970	8465.6	1
1	160035	8468.6	1
1	160076	8470.8	3
1	160526	8495	1
1	160684	8503.4	1
1	160732	8506	1
1	160746	8507	3
1	160796	8509.8	1
1	160811	8510.8	1
1	161052	8523	2
1	161085	8525.4	2
1	161129	8527.8	13
1	161131	8528	1
1	161251	8534.4	1
1	161294	8536.8	1
1	161334	8538.6	4
1	161382	8541.2	2
1	161416	8542.8	3
1	161513	8548.2	2
1	161542	8550.2	2
1	161606	8553.2	6
1	161718	8559	2
1	161739	8560	2
1	161802	8563.2	4
1	161853	8566.2	1
1	162221	8586.4	5
1	162260	8588.6	3
1	162712	8612.2	1
1	162865	8620.2	2
1	163074	8631	1
1	163128	8633.8	1
1	163240	8640	1
1	163374	8647.8	4
1	163378	8648	1
1	163844	8672.6	1
1	163912	8676	3
1	163920	8676.4	2
1	164075	8685.8	4
1	164213	8692.8	7
1	164222	8693.4	4
1	164230	8693.8	1
1	164234	8694	1
1	164312	8698.4	1
1	164410	8703.6	1
1	164439	8705	4
1	164644	8716.6	7
1	164678	8718.6	1
1	164789	8724	8
1	164832	8726	1
1	165010	8735.6	5
1	165445	8758.6	2
1	165472	8760	4
1	165554	8765.2	2
1	165566	8765.8	2
1	165619	8769	4
1	165718	8774	3
1	166041	8791.6	1
1	166230	8800.6	3
1	166368	8807.8	2
1	166398	8809.8	1
1	166496	8815	1
1	166536	8817.2	4
1	166665	8823.8	2
1	166670	8824.2	1
1	167518	8868.8	1
1	167536	8869.6	6
1	167673	8876.8	1
1	167889	8888.2	7
1	168095	8899.8	4
1	168247	8908.4	4
1	168528	8923.2	6
1	168568	8925.4	2
1	168620	8928.2	7
1	168656	8929.8	2
1	168711	8933	1
1	168742	8934.6	1
1	168760	8935.4	4
1	168778	8936.2	2
1	169071	8952.4	3
1	169108	8954.4	1
1	169269	8962.4	1
1	169366	8968	8
1	169394	8969.2	2
1	169415	8970.4	2
1	169538	8976.6	7
1	169598	8979.6	1
1	169633	8981.2	8
1	169653	8982.8	5
1	169677	8984.2	2
1	169685	8984.8	1
1	169809	8991.8	1
1	169962	8999.8	4
1	169978	9000.6	1
1	170140	9009.2	1
1	170286	9017	1
1	170368	9021	1
1	170468	9026.4	1
1	170514	9029	10
1	170586	9033.4	1
1	170700	9039.8	4
1	170755	9042.6	4
1	171155	9064.2	7
1	171172	9065	1
1	171346	9074.4	6
1	171362	9075	1
1	171410	9077.2	1
1	171536	9083.4	2
1	171575	9085.6	1
1	171632	9088.8	1
1	171776	9096.2	2
1	171930	9104.4	9
1	171971	9106.8	1
1	172168	9116.4	7
1	172430	9129.8	3
1	172480	9132.2	1
1	172485	9132.6	3
1	172552	9135.8	1
1	172728	9145.8	7
1	172916	9154.8	1
1	173048	9162	3
1	173214	9170.8	2
1	173255	9172.8	2
1	173457	9183.2	4
1	173604	9191.4	1
1	173783	9202	6
1	173838	9205.2	18
1	174100	9219.2	1
1	174165	9222.6	9
1	174593	9243.4	3
1	174630	9245.8	3
1	174656	9247.4	5
1	174738	9251.6	3
1	174753	9252.4	5
1	175142	9272.6	4
1	175202	9275.4	2
1	175560	9293.2	1
1	175639	9297.2	1
1	175700	9300.2	1
1	176060	9318.4	1
1	176188	9325	1
1	176269	9329.4	4
1	176303	9331.2	7
1	176530	9342.6	7
1	176728	9352.6	1
1	176918	9361.6	2
1	177266	9378.8	2
1	177322	9381.8	5
1	177530	9392.6	1
1	177548	9393.8	1
1	177604	9397.2	1
1	177700	9402.4	5
1	177744	9404.8	15
1	177810	9408.2	5
1	177876	9411.2	1
1	177933	9414.6	7
1	177983	9417	4
1	177989	9417.4	1
1	178060	9421.4	5
1	178115	9425	1
1	178176	9428.2	6
1	178224	9430.4	4
1	178310	9434.4	2
1	178396	9439.4	5
1	178492	9444.2	1
1	178509	9445.2	1
1	178672	9454	1
1	178713	9456.2	5
1	178966	9469	2
1	179040	9472.8	5
1	179044	9473	1
1	179130	9477	10
1	179168	9479.6	1
1	179243	9483.6	4
1	179265	9484.8	2
1	179315	9487.2	3
1	179675	9506.8	2
1	179858	9515.6	1
1	180054	9525.8	1
1	180157	9531.2	1
1	180179	9532.6	1
1	180217	9534.4	1
1	180262	9536.8	1
1	180320	9540.2	1
1	180484	9548.2	2
1	180652	9557.8	1
1	180850	9567.2	7
1	180865	9568.2	2
1	180932	9571.2	2
1	181076	9577.8	1
1	181191	9584	4
1	181369	9593.2	2
1	181732	9612.6	16
1	181937	9623.4	8
1	182187	9637	4
1	182353	9646	2
1	182458	9652.6	8
1	182476	9653.4	1
1	182504	9655	1
1	182558	9658	2
1	182632	9661.8	2
1	182841	9673.4	2
1	182932	9678.6	2
1	182984	9681.6	3
1	183044	9684.8	6
1	183168	9691	1
1	183272	9696.4	12
1	183290	9697.2	2
1	183462	9706	10
1	183506	9708.4	8
1	183659	9715.6	7
1	183760	9721.2	2
1	183775	9722	3
1	183964	9731.4	1
1	183980	9732.2	2
1	184122	9740.4	3
1	184377	9753.4	1
1	184437	9756.8	1
1	184513	9760.6	2
1	184907	9781.4	1
1	185116	9793.4	2
1	185160	9795.8	2
1	185286	9802.2	1
1	185366	9806.6	1
1	185511	9814.2	3
1	185531	9815.4	1
1	185578	9818.2	9
1	185809	9830	1
1	185839	9831.8	3
1	185844	9832.2	3
1	185850	9832.4	1
1	185909	9835.2	1
1	186059	9843.6	4
1	186085	9845.4	1
1	186088	9845.6	1
1	186095	9846	1
1	186245	9853.8	4
1	186269	9855.2	2
1	186364	9860.4	1
1	186576	9872.4	12
1	186602	9873.6	1
1	186617	9874.4	6
1	186632	9875.4	8
1	186639	9875.8	1
1	186748	9881.4	2
1	186943	9891.8	2
1	187046	9897.2	4
1	187340	9913.8	8
1	187429	9918.6	2
1	187490	9921.4	1
1	187516	9923	6
1	187751	9935	2
1	187760	9935.4	1
1	187776	9936.2	1
1	187860	9940.4	1
1	187886	9942	1
1	187915	9944	2
1	188050	9950.6	16
1	188098	9953.2	4
1	188175	9957.6	3
1	188431	9971.2	1
1	188451	9972.6	2
1	188998	10002.4	2
1	189015	10003.6	5
1	189128	10010	1
1	189178	10012.2	4
1	189372	10022	10
1	189433	10024.8	2
1	189538	10030.4	2
1	189742	10040.8	1
1	189818	10044.2	1
1	189837	10045.4	1
1	190039	10055.4	2
1	190278	10068.4	1
1	190512	10081	1
1	190525	10081.6	3
1	190784	10095.4	1
1	190852	10098.4	1
1	190899	10100.8	1
1	190949	10104	2
1	191348	10126.4	3
1	191615	10140.6	4
1	191672	10143.8	4
1	191726	10146.8	1
1	192000	10160.8	1
1	192009	10161.4	1
1	192116	10166.6	1
1	192231	10172.4	6
1	192262	10174	2
1	192576	10189.8	4
1	192666	10194.8	7
1	192763	10200.4	4
1	192776	10201	1
1	192871	10205.8	2
1	193146	10221	1
1	193189	10223.2	2
1	193283	10228.6	1
1	193684	10251	5
1	193968	10265.4	2
1	194104	10272	2
1	194118	10273	1
1	194432	10289.6	1
1	194792	10308.2	1
1	194945	10316.8	1
1	195028	10320.6	4
1	195095	10323.8	9
1	195120	10325.6	1
1	195158	10327.8	4
1	195166	10328.2	2
1	195170	10328.4	1
1	195313	10336.2	1
1	195326	10337	1
1	195662	10354.6	1
1	195690	10356	11
1	195812	10362.4	1
1	195988	10371.8	4
1	196110	10378.2	3
1	196294	10387.8	3
1	196384	10393	1
1	196739	10411.8	7
1	196832	10416.8	5
1	196890	10419.4	8
1	197126	10431.4	3
1	197210	10436	1
1	197263	10439.2	1
1	197346	10443.4	1
1	197508	10452.2	3
1	197667	10460.2	14
1	197694	10461.8	2
1	198040	10480.4	1
1	198158	10486.6	4
1	198172	10487.2	2
1	198190	10488	2
1	198404	10498.6	4
1	198830	10520.6	1
1	199036	10531.4	1
1	199054	10532.2	2
1	199061	10532.6	1
1	199208	10540.6	2
1	199325	10546.6	1
1	199334	10547	1
1	199345	10547.8	2
1	199376	10549.4	4
1	199532	10558	8
1	199536	10558.2	1
1	199607	10561.8	3
1	199700	10566.4	1
2	85	4.6	6
2	346	18	1
2	418	21.4	15
2	466	24	9
2	484	24.8	7
2	627	32.8	39
2	682	36	16
2	848	44	43
2	1052	54.6	3
2	1126	58.8	15
2	1289	67.6	11
2	1416	74.8	8
2	1570	83	7
2	1615	85.8	23
2	1640	87	5
2	1826	96.4	39
2	1940	102	24
2	2050	108.2	45
2	2271	120.2	82
2	2428	127.6	69
2	2558	135	11
2	2600	136.8	1
2	2642	138.8	16
2	2703	141.6	1
2	2800	146.8	1
2	2950	154.6	19
2	3008	158	18
2	3130	165	52
2	3522	186	48
2	3640	192.2	17
2	3833	202.6	1
2	3902	205.8	4
2	4002	211	38
2	4053	214	5
2	4178	220.8	10
2	4202	222	1
2	4254	224.8	1
2	4320	227.8	15
2	4432	233.8	1
2	4493	237	31
2	4572	241.2	20
2	4696	247.4	3
2	4770	252	11
2	4784	252.6	2
2	4863	256.6	9
2	4944	261.4	4
2	5049	267.4	4
2	5240	278	15
2	5308	281.4	3
2	5374	284.8	21
2	5426	287.2	20
2	5592	295.6	74
2	5640	297.8	8
2	5702	301	20
2	5828	307.2	13
2	6215	327.8	29
2	6378	336	42
2	6465	340.8	28
2	6572	346.4	9
2	6592	347.8	9
2	6642	350.8	19
2	6868	362.6	101
2	7135	376	3
2	7167	378	5
2	7203	379.8	14
2	7270	383.2	3
2	7375	389.4	5
2	7567	399	57
2	7616	401.4	8
2	7774	409.2	3
2	7826	411.6	23
2	7895	415.6	8
2	8137	428.6	1
2	8166	430	9
2	8218	432.8	15
2	8430	443.8	55
2	8494	447.2	7
2	8680	457	3
2	8742	460.6	21
2	8934	471.2	33
2	9015	476	44
2	9076	479.6	26
2	9193	485.8	4
2	9286	490.8	8
2	9387	496.2	43
2	9777	515.2	16
2	9928	523	3
2	10007	527.2	2
2	10072	530.2	1
2	10142	533.8	1
2	10332	544.4	62
2	10406	548.2	11
2	10626	559.4	17
2	11175	588.8	4
2	11311	596.4	5
2	11363	599.4	19
2	11380	600.4	9
2	11582	610.8	33
2	11757	620.8	7
2	11774	621.8	7
2	11846	626	8
2	11879	627.4	12
2	11952	630.8	2
2	12073	637.2	36
2	12103	638.6	1
2	12306	649.2	24
2	12442	656.6	17
2	12493	659.6	5
2	12517	661.2	13
2	12584	664.8	29
2	12814	677	14
2	12894	681.4	36
2	12912	682.2	1
2	13260	700.8	30
2	13340	705	9
2	13371	706.6	3
2	13456	711.4	26
2	13706	724.6	73
2	13866	732	45
2	13948	736.8	18
2	14017	740.8	25
2	14084	744.8	1
2	14159	749.4	9
2	14212	752.2	20
2	14328	758	37
2	14446	764	9
2	14554	769.8	37
2	14641	774.4	6
2	14691	777.6	19
2	14795	783.4	18
2	14930	789.6	34
2	15040	796.2	27
2	15310	809.8	7
2	15429	815.8	49
2	15506	820.6	1
2	15576	824.6	5
2	15618	826.4	3
2	15642	827.8	7
2	15680	830	14
2	15912	842.4	47
2	16050	849.6	6
2	16106	852.2	1
2	16142	854.2	10
2	16240	858.6	35
2	16312	863	23
2	16429	869	7
2	16634	879.2	25
2	16713	883	12
2	16786	887	1
2	16844	890	1
2	16976	897.2	6
2	17248	911.6	11
2	17470	923.2	34
2	17518	925.4	8
2	17544	926.6	4
2	17606	930.2	19
2	17669	934	26
2	17734	938.4	16
2	17816	942.6	1
2	17992	952.2	47
2	18029	954.4	6
2	18108	958.4	7
2	18140	960.2	13
2	18144	960.4	1
2	18255	965.8	37
2	18418	974.6	3
2	18682	988.2	44
2	18827	995.8	51
2	18864	998.2	11
2	18912	1000.8	18
2	18984	1004.8	11
2	19068	1009	10
2	19123	1011.6	24
2	19537	1033.4	19
2	19606	1037	23
2	19748	1044.6	61
2	19975	1056.4	1
2	20094	1062.8	11
2	20120	1064.4	4
2	20170	1067.4	22
2	20342	1076.4	65
2	20403	1080	23
2	20444	1082.4	15
2	20468	1083.4	7
2	20524	1086	20
2	20576	1088.8	18
2	20596	1089.8	2
2	21039	1113	17
2	21066	1114.8	16
2	21100	1116.4	11
2	21104	1116.6	1
2	21337	1129.6	14
2	21452	1135.4	40
2	21528	1139.6	7
2	21568	1141.8	10
2	21623	1144.6	12
2	21896	1159.4	26
2	21954	1163.2	19
2	22524	1192.6	27
2	22649	1199	20
2	22692	1201.2	17
2	22778	1205.4	5
2	22884	1211.4	7
2	23044	1219.6	33
2	23122	1223.6	24
2	23261	1230.8	13
2	23370	1236.2	6
2	23451	1240.4	22
2	23578	1247.4	48
2	23734	1254.8	6
2	23784	1257.2	6
2	23975	1267.4	15
2	23996	1268.8	7
2	24000	1269	1
2	24016	1269.6	5
2	24038	1270.6	2
2	24068	1272.4	3
2	24201	1280.6	29
2	24215	1281.6	6
2	24228	1282.4	4
2	24252	1283.8	1
2	24354	1288.6	9
2	24608	1301.4	82
2	24708	1306.4	33
2	24945	1319	35
2	25002	1322	23
2	25037	1324	6
2	25042	1324.4	3
2	25188	1331.6	3
2	25275	1335.8	30
2	25450	1345.8	29
2	25631	1354.8	68
2	25717	1359.4	9
2	25824	1365	7
2	25970	1372.8	58
2	26006	1374.4	14
2	26054	1377	23
2	26231	1387.2	2
2	26256	1388.4	9
2	26407	1397	15
2	26622	1407.8	56
2	26692	1411.8	25
2	26864	1420.8	8
2	26940	1424.6	15
2	27018	1428.6	33
2	27030	1429.2	1
2	27126	1434	13
2	27135	1434.6	4
2	27193	1437.8	17
2	27306	1443.6	27
2	27349	1446	13
2	27362	1446.6	3
2	27752	1467	7
2	27838	1471.8	7
2	27864	1473	9
2	27912	1475.6	2
2	28024	1481	52
2	28083	1484	19
2	28121	1486.2	5
2	28208	1490.8	31
2	28277	1494.8	7
2	28326	1498	12
2	28461	1504.8	39
2	28595	1512.8	69
2	28598	1513	1
2	28840	1526.2	17
2	28884	1528.6	9
2	28956	1531.8	28
2	29016	1534.8	23
2	29064	1537	17
2	29448	1556.2	9
2	29690	1568.8	23
2	29738	1571.8	11
2	29837	1577.6	12
2	29884	1580.4	11
2	29942	1583.4	1
2	30012	1587.4	17
2	30214	1599	101
2	30402	1609.6	40
2	30500	1614.8	17
2	30667	1624	1
2	30820	1631.6	33
2	30846	1632.8	3
2	31057	1643.6	65
2	31095	1645.2	5
2	31462	1665	23
2	31578	1671.8	19
2	31689	1678.4	5
2	31885	1688.6	9
2	32008	1695	14
2	32048	1696.8	11
2	32308	1711.6	61
2	32340	1713.4	3
2	32422	1717.6	7
2	32538	1723.4	1
2	32607	1726.8	15
2	32610	1727	1
2	32636	1728.2	1
2	32658	1729.2	5
2	32667	1730	4
2	32978	1746.8	6
2	33107	1753.8	43
2	33230	1760.8	6
2	33490	1774.4	9
2	33790	1790	3
2	33996	1800.6	55
2	34074	1804.6	16
2	34096	1805.6	2
2	34131	1807.4	1
2	34210	1811.4	35
2	34313	1817.4	18
2	34444	1824.4	8
2	34542	1829.2	31
2	34740	1840.2	41
2	34858	1846.4	45
2	34906	1849	9
2	34939	1851	1
2	34968	1852.6	3
2	34972	1852.8	1
2	34976	1853	1
2	35193	1864	41
2	35380	1873.6	1
2	35488	1878.8	1
2	35698	1890	11
2	35784	1895.4	11
2	35828	1897.6	8
2	35855	1899.4	2
2	36077	1911.4	32
2	36192	1917	25
2	36374	1927.2	1
2	36692	1944.4	82
2	37110	1965.2	62
2	37284	1974.8	12
2	37341	1977.6	27
2	37414	1981.6	19
2	37440	1983.2	7
2	37520	1987	7
2	37570	1989.2	9
2	37818	2002.2	29
2	37964	2009.4	23
2	38008	2011.8	12
2	38095	2017	9
2	38341	2030	12
2	38525	2040.4	32
2	38706	2051	1
2	38868	2059.4	12
2	38948	2064.6	21
2	39016	2068.8	38
2	39024	2069.2	2
2	39050	2070.4	7
2	39162	2075.8	16
2	39288	2082	1
2	39425	2089.8	47
2	39496	2093.4	4
2	39550	2096.2	12
2	39639	2101.4	24
2	39853	2113.4	21
2	39929	2117.4	3
2	40066	2124.4	36
2	40234	2133	15
2	40308	2136.4	25
2	40446	2144.2	21
2	40498	2146.6	9
2	40528	2148.4	11
2	40768	2160.2	1
2	40798	2162	8
2	40805	2162.6	1
2	40821	2163.4	7
2	40870	2165.6	10
2	41098	2178	14
2	41322	2189.6	2
2	41446	2196.4	54
2	41462	2197.2	4
2	41523	2200.2	28
2	41690	2209.4	22
2	41711	2210.8	10
2	41746	2213	1
2	41988	2225.6	46
2	42101	2232.2	47
2	42234	2238.8	43
2	42428	2248.2	18
2	42484	2250.8	4
2	42674	2260.6	12
2	43123	2283.8	1
2	43174	2286.2	5
2	43248	2290.8	15
2	43620	2310	3
2	43650	2311.4	13
2	43840	2321.2	46
2	43862	2322.6	5
2	43932	2326.2	16
2	44126	2336.4	1
2	44132	2336.6	1
2	44219	2341.2	26
2	44313	2346.6	52
2	44354	2348.8	3
2	44464	2354.8	5
2	44516	2357.6	1
2	44675	2366.4	7
2	44718	2368.4	3
2	44902	2377.6	9
2	44906	2377.8	1
2	45044	2384.6	12
2	45086	2386.6	1
2	45126	2388.4	6
2	45177	2391	11
2	45196	2392	6
2	45446	2405.2	7
2	45608	2413	7
2	45660	2415.4	18
2	45687	2416.8	1
2	45697	2417.4	1
2	45749	2420.2	9
2	45793	2423	1
2	45881	2427.6	5
2	46026	2435.2	26
2	46169	2442.8	27
2	46445	2457.6	11
2	46704	2471.4	44
2	46939	2483.6	27
2	47154	2495.4	19
2	47324	2504.6	25
2	47436	2510.8	26
2	47484	2513.4	24
2	47540	2516	7
2	47795	2528.8	23
2	47959	2537.2	1
2	48040	2541.2	1
2	48077	2543.2	17
2	48132	2546.2	7
2	48238	2552.2	51
2	48505	2566	7
2	48636	2573.4	31
2	48786	2581.6	15
2	48816	2583	7
2	48866	2585.6	7
2	48946	2589.4	5
2	49015	2593.2	24
2	49041	2594.8	9
2	49336	2611.2	19
2	49464	2617.8	3
2	49874	2640.4	1
2	50102	2653	17
2	50200	2657.4	22
2	50328	2664.2	1
2	50396	2668.4	30
2	50440	2670.4	3
2	50762	2687	67
2	50857	2692.4	16
2	50928	2697	1
2	51008	2701.4	3
2	51195	2711.4	50
2	51302	2716.6	8
2	51417	2722.6	28
2	51562	2730	71
2	51684	2736.4	14
2	51730	2739	1
2	51780	2741.4	5
2	51851	2745	35
2	51902	2747.6	3
2	51992	2752.2	1
2	52250	2766.6	19
2	52394	2773.6	13
2	52733	2792.2	6
2	52796	2795.6	4
2	52805	2796.2	1
2	52934	2804.2	33
2	53031	2809.6	1
2	53159	2816.6	15
2	53416	2829.8	13
2	53526	2835.2	28
2	53612	2839.2	33
2	53944	2855.4	6
2	54230	2870.4	8
2	54303	2874.4	11
2	54312	2875	3
2	54467	2882.8	18
2	54580	2888.8	2
2	54613	2890.6	12
2	54670	2893.6	3
2	54835	2902.2	1
2	55091	2916.4	47
2	55128	2918.4	14
2	55160	2920.2	3
2	55270	2925.6	33
2	55362	2929.8	26
2	55410	2932.4	12
2	55462	2935.2	3
2	55731	2948.8	35
2	55839	2955.2	16
2	56126	2969.8	3
2	56158	2971.2	10
2	56172	2971.8	3
2	56199	2973.6	3
2	56375	2983.6	27
2	56666	3000	86
2	56918	3012.6	31
2	56944	3013.8	10
2	57072	3020.6	28
2	57184	3026.6	2
2	57205	3028	6
2	57380	3037.4	1
2	57632	3050.8	11
2	57733	3056.2	6
2	58022	3071.4	96
2	58248	3083.4	29
2	58272	3084.8	3
2	58328	3087.6	6
2	58458	3095	65
2	58714	3107.2	2
2	58903	3116.8	60
2	59058	3124.4	3
2	59305	3137.4	27
2	59414	3143.6	40
2	59476	3147.4	2
2	59886	3168.2	33
2	60001	3174.6	52
2	60055	3177.6	5
2	60129	3182	6
2	60302	3191.6	34
2	60394	3196.2	8
2	60596	3207.6	65
2	60853	3222	44
2	60912	3224.8	8
2	61034	3231.8	31
2	61183	3240	5
2	61303	3246	13
2	61430	3252.4	10
2	61473	3254.8	1
2	61658	3264.4	21
2	61662	3264.6	1
2	61846	3275.8	14
2	61988	3283	21
2	62000	3283.6	2
2	62138	3289.8	7
2	62286	3297.4	3
2	62404	3303	29
2	62500	3308.2	7
2	62562	3312.2	5
2	62646	3316.4	1
2	62707	3319.6	10
2	62752	3322.4	3
2	63076	3339.2	51
2	63251	3347.8	11
2	63288	3349.8	13
2	63608	3366	17
2	63690	3369.8	9
2	63791	3374.8	2
2	64075	3388.6	3
2	64127	3391.4	15
2	64549	3415	1
2	64586	3417	6
2	64638	3419.8	3
2	65071	3444.4	24
2	65128	3447	24
2	65366	3459.2	15
2	65435	3463	13
2	65601	3473	4
2	65658	3475.6	9
2	65715	3479	6
2	65774	3481.8	6
2	66092	3498	15
2	66147	3501	22
2	66296	3509.2	5
2	66473	3518.8	19
2	66526	3521.6	1
2	66878	3540	8
2	66887	3540.6	2
2	66959	3544.4	1
2	67022	3547.6	14
2	67051	3549.4	16
2	67292	3561.4	20
2	67589	3576.2	45
2	67944	3596	57
2	68026	3600.2	4
2	68030	3600.4	1
2	68114	3604.8	15
2	68142	3606.4	7
2	68222	3610	31
2	68432	3619.6	50
2	68523	3624.4	13
2	68558	3626.2	4
2	68603	3628.4	13
2	68707	3634.8	2
2	68900	3645	23
2	68976	3649.2	11
2	69079	3654.2	23
2	69177	3659.6	16
2	69197	3661.2	8
2	69239	3664.2	6
2	69278	3666	13
2	69382	3671.2	9
2	69424	3673.2	5
2	69494	3676.6	11
2	70150	3710.4	68
2	70218	3713.8	9
2	70296	3717.8	11
2	70410	3723	6
2	70415	3723.2	1
2	70436	3724.2	7
2	70539	3729.8	14
2	70818	3745.2	46
2	71055	3757.4	14
2	71210	3766.2	12
2	71214	3766.4	1
2	71344	3772.8	15
2	71584	3785.2	51
2	71621	3787.2	10
2	71650	3788.6	5
2	71682	3790	1
2	71814	3796.8	7
2	71885	3800.6	11
2	71960	3804.6	7
2	71990	3806	7
2	72123	3812.8	28
2	72290	3821.2	16
2	72392	3826.2	10
2	72470	3830.6	1
2	72572	3836	27
2	72748	3845.6	25
2	72794	3848.4	19
2	72913	3855.4	19
2	73005	3860	11
2	73064	3863.2	5
2	73287	3874.4	22
2	73365	3878.8	5
2	73398	3880.4	2
2	73620	3890.8	8
2	73739	3898.2	5
2	73766	3899.4	5
2	73915	3907.2	55
2	74000	3911.4	5
2	74249	3924.6	1
2	74444	3934.6	36
2	74493	3937	2
2	74583	3942.8	20
2	74642	3946.4	35
2	74839	3956.8	73
2	74912	3960.4	25
2	75098	3970.4	8
2	75123	3971.6	9
2	75188	3975	9
2	75311	3980.8	12
2	75575	3995.4	9
2	75648	3999.4	3
2	76195	4029	23
2	76407	4040.4	23
2	76449	4042.6	20
2	76476	4044.2	4
2	76628	4052	52
2	76735	4057.4	5
2	76953	4069.6	41
2	77166	4080.8	14
2	77169	4081	1
2	77455	4096.2	4
2	77576	4102	3
2	77614	4104	8
2	77654	4106.2	5
2	77823	4114.4	21
2	77842	4115.2	3
2	77997	4124	26
2	78146	4132.2	28
2	78165	4133.2	7
2	78305	4140.8	19
2	78574	4156.2	73
2	78636	4159	10
2	78735	4164.2	3
2	78878	4172	5
2	79124	4184.8	23
2	79252	4191.8	9
2	79566	4208.6	32
2	79631	4212	6
2	79684	4214.8	24
2	79697	4215.4	3
2	79832	4222.4	8
2	79896	4226	9
2	79978	4229.8	25
2	80139	4238	37
2	80454	4255.2	20
2	80522	4258.8	35
2	80892	4279.2	19
2	81011	4285.8	2
2	81082	4289.4	3
2	81309	4302	9
2	81327	4303	5
2	81474	4310.8	57
2	81650	4320.2	15
2	81787	4327.4	6
2	81822	4329.8	7
2	81858	4331.4	15
2	81958	4336.4	1
2	81973	4337.2	4
2	82166	4347.8	45
2	82187	4349.2	11
2	82189	4349.4	1
2	82379	4359.6	34
2	82435	4363.2	27
2	82464	4364.6	5
2	82608	4372.6	5
2	82642	4374.2	13
2	82678	4376.2	11
2	82699	4377.4	4
2	82883	4387	6
2	83106	4398	8
2	83110	4398.2	1
2	83200	4403.6	10
2	83269	4406.8	1
2	83646	4427.6	1
2	84181	4456.4	104
2	84294	4462.4	2
2	84328	4464	13
2	84701	4483.4	14
2	84834	4490.4	8
2	84934	4495.4	34
2	85046	4501.2	27
2	85134	4506.4	15
2	85274	4512.8	7
2	85430	4521	21
2	85486	4523.8	11
2	85490	4524	1
2	85735	4536.8	26
2	85763	4538.6	1
2	85892	4545.8	69
2	86004	4551.4	25
2	86100	4555.8	17
2	86249	4563.4	37
2	86288	4566	16
2	86410	4572.8	39
2	86872	4597.6	23
2	86952	4601.6	5
2	87036	4606.6	33
2	87094	4609.4	4
2	87118	4610.8	8
2	87263	4618.8	46
2	87538	4632.6	26
2	87652	4638.2	22
2	87677	4639.6	12
2	87779	4645	3
2	87799	4646.4	6
2	87882	4650.8	15
2	88020	4658	18
2	88031	4658.6	1
2	88152	4664.6	7
2	88296	4672	13
2	88464	4681.2	16
2	88522	4684.2	27
2	88608	4688.4	16
2	88734	4694.2	38
2	88798	4697.6	27
2	88828	4699	5
2	89032	4709.8	5
2	89250	4721.6	7
2	89337	4726	12
2	89385	4728.6	17
2	89906	4756.8	27
2	90164	4771.2	34
2	90220	4774.4	28
2	90286	4777.4	21
2	90398	4783.8	43
2	90654	4797.6	5
2	90995	4815.8	42
2	91004	4816.6	4
2	91272	4830.8	11
2	91292	4831.8	7
2	91310	4832.6	3
2	91418	4838.2	5
2	91528	4843.8	22
2	91615	4848.6	2
2	91676	4851.6	4
2	91846	4860.4	71
2	91875	4862.2	17
2	92162	4878	15
2	92201	4880.2	21
2	92226	4881.6	3
2	92663	4904.8	34
2	92769	4911.2	27
2	93014	4923.8	82
2	93239	4935.2	13
2	93342	4940.2	27
2	93492	4947.4	13
2	93614	4954.6	15
2	93636	4955.6	5
2	93753	4961.6	4
2	93899	4969.2	47
2	94248	4987.8	13
2	94305	4991.2	19
2	94404	4995.8	6
2	94500	5000.8	17
2	94557	5004	10
2	94580	5005.4	13
2	94899	5020.8	8
2	95227	5039.6	9
2	95284	5043	7
2	95584	5058.6	7
2	95712	5065.2	3
2	95752	5067.4	12
2	95803	5070.2	17
2	95854	5072.6	18
2	95924	5076.2	18
2	95998	5079.6	19
2	96092	5085	3
2	96218	5091.2	3
2	96277	5094.6	1
2	96368	5100.6	5
2	96609	5113.8	19
2	96755	5121.6	8
2	97004	5134.2	96
2	97380	5153.2	14
2	97394	5153.8	2
2	97460	5157.2	25
2	97483	5158.6	4
2	97524	5160.8	20
2	97834	5177.8	103
2	98256	5198.4	31
2	98340	5203.4	23
2	98349	5204	5
2	98375	5205.4	7
2	98430	5208.6	17
2	98621	5219.6	75
2	99012	5239.8	51
2	99290	5253.6	31
2	99398	5258.6	33
2	99514	5265.2	16
2	99614	5270.6	25
2	99726	5276.4	8
2	99820	5282	33
2	99842	5283.4	6
2	99878	5285.4	4
2	99976	5290.4	22
2	100024	5292.6	13
2	100382	5310.8	11
2	100434	5313.2	4
2	100556	5319.6	1
2	100798	5333	37
2	100888	5337	1
2	100955	5340.6	5
2	100957	5340.8	1
2	101031	5345.2	5
2	101326	5361	20
2	101356	5362.6	5
2	101418	5366.2	18
2	101506	5370.4	15
2	101634	5377	45
2	101745	5382.4	1
2	101830	5387	9
2	102013	5397.4	47
2	102050	5399.4	6
2	102306	5413	5
2	102508	5423	64
2	102545	5425	9
2	102651	5430.6	26
2	102789	5437.4	38
2	102910	5444.4	18
2	103023	5450.4	21
2	103456	5472.2	34
2	103538	5476.8	14
2	103829	5491.4	25
2	104098	5505	3
2	104185	5509.4	8
2	104338	5517.4	9
2	104507	5527	21
2	104556	5529.4	15
2	104592	5531	7
2	104689	5536.2	1
2	104758	5539.4	8
2	104820	5542.2	21
2	104847	5544.2	11
2	104949	5549	22
2	104990	5551.2	11
2	105080	5556.2	15
2	105232	5564.2	17
2	105291	5567	18
2	105398	5572.4	47
2	105516	5579	49
2	105792	5592.6	17
2	105918	5598.8	11
2	105966	5601.4	23
2	106295	5619.8	3
2	106358	5623.4	11
2	106516	5631.4	4
2	106560	5633.8	1
2	106615	5637	9
2	106639	5638.8	15
2	106725	5643.4	3
2	106856	5651	14
2	106929	5654.6	27
2	106958	5656.4	9
2	106984	5658	11
2	107068	5663	20
2	107101	5664.6	6
2	107257	5673.2	4
2	107368	5679.4	9
2	107658	5695.2	26
2	107826	5703.8	38
2	107844	5705	10
2	107963	5711.4	14
2	108314	5730	19
2	108379	5733.2	29
2	108477	5738.4	19
2	108485	5739	2
2	108564	5743.4	5
2	108667	5748.6	26
2	108742	5753	33
2	108774	5754.8	16
2	108904	5762.2	16
2	109034	5769.2	21
2	109263	5782	52
2	109884	5815.4	16
2	109998	5821.4	14
2	110138	5828.4	45
2	110166	5829.8	13
2	110240	5834	5
2	110333	5839.6	48
2	110409	5843.4	4
2	110539	5849.8	7
2	110584	5852.6	7
2	110637	5855.4	24
2	110812	5865	20
2	110868	5867.8	4
2	111071	5878.4	1
2	111094	5879.6	7
2	111340	5893.4	28
2	111543	5904.2	3
2	111628	5908.8	7
2	111662	5910.4	8
2	111693	5912	7
2	111794	5916.8	15
2	111987	5926.2	14
2	112053	5930.6	32
2	112163	5936.6	3
2	112409	5950.4	39
2	112760	5967.8	10
2	112916	5975.6	1
2	113067	5983.8	7
2	113152	5989	11
2	113227	5992.6	21
2	113236	5993.2	3
2	113293	5995.8	10
2	113561	6010	3
2	113735	6019.6	17
2	113835	6025.4	30
2	113902	6028.8	4
2	114039	6035.8	29
2	114134	6040.4	25
2	114160	6041.6	10
2	114314	6050	10
2	114576	6064	64
2	114724	6072	31
2	114772	6074.2	19
2	114800	6075.8	5
2	114847	6078.4	7
2	114948	6084.4	33
2	115362	6106.4	3
2	115366	6106.6	1
2	115462	6111.4	9
2	115580	6117.2	9
2	115761	6126.8	17
2	115782	6127.8	3
2	116153	6147.6	3
2	116332	6156	45
2	116550	6168	5
2	116608	6171.4	17
2	116812	6182.6	11
2	116851	6184.8	12
2	117046	6196	1
2	117128	6199.8	5
2	117334	6210.2	1
2	117422	6214.6	20
2	117578	6222.8	8
2	117621	6225.4	20
2	117782	6234	53
2	117827	6236.6	2
2	117936	6242.2	17
2	118010	6246.4	1
2	118062	6249.2	24
2	118110	6251.8	1
2	118132	6253	7
2	118164	6254.6	1
2	118232	6257.6	10
2	118383	6265.8	65
2	118598	6276.6	13
2	118938	6294	4
2	119099	6301.8	1
2	119260	6310.4	6
2	119370	6316.2	11
2	119727	6335.6	47
2	119854	6342.2	2
2	119986	6348.6	9
2	120005	6349.8	3
2	120096	6354.4	8
2	120186	6359	3
2	120311	6365	20
2	120364	6367.8	17
2	120408	6369.8	9
2	120435	6371.4	15
2	120493	6374.6	9
2	120760	6388.6	17
2	120886	6395.6	48
2	121071	6404.8	22
2	121298	6416.8	30
2	121389	6421.4	28
2	121482	6426	13
2	121628	6433.2	6
2	121672	6435.2	15
2	121858	6444.6	10
2	121873	6445.4	1
2	122007	6452.4	21
2	122025	6453.8	9
2	122168	6462.4	9
2	122173	6462.6	1
2	122355	6472.8	50
2	122460	6478.4	19
2	122494	6480.4	5
2	122520	6482	1
2	122599	6485.8	2
2	122666	6489.6	15
2	122708	6491.6	3
2	122770	6494.8	21
2	122859	6499.6	4
2	122892	6501.2	1
2	123118	6513.2	26
2	123161	6515.6	3
2	123223	6518.8	3
2	123316	6523.4	16
2	123572	6536.8	22
2	123883	6553.2	18
2	123919	6555.4	6
2	123948	6557.4	14
2	123992	6559.8	17
2	124072	6564.6	1
2	124411	6582.2	4
2	124501	6587.2	19
2	124530	6589	13
2	124534	6589.2	1
2	124666	6595.6	38
2	124696	6597	10
2	124725	6598.4	6
2	124782	6601.6	12
2	124847	6605.2	35
2	124880	6607.2	13
2	125186	6622.2	13
2	125245	6625.6	17
2	125543	6639.8	1
2	125854	6655.4	15
2	125902	6658	13
2	126115	6669.4	43
2	126190	6673.4	24
2	126263	6677.8	18
2	126338	6681.2	23
2	126363	6682.4	3
2	126382	6683.6	1
2	126556	6692.8	52
2	126559	6693	1
2	126581	6694.6	5
2	126746	6702.8	3
2	126798	6705.6	7
2	126949	6713.2	9
2	127036	6718.2	47
2	127072	6719.8	3
2	127162	6724.4	12
2	127303	6731.6	38
2	127356	6734.6	9
2	127440	6738.8	1
2	127491	6741.4	20
2	127901	6762.6	11
2	127933	6764.4	17
2	127984	6767.4	9
2	128116	6774.4	59
2	128246	6781.4	58
2	128445	6791.4	10
2	128494	6794	22
2	129150	6827.8	5
2	129473	6845.8	13
2	129528	6849.2	24
2	129710	6858.4	42
2	129802	6863.4	42
2	129948	6870.4	31
2	130134	6879.4	11
2	130288	6887.2	7
2	130434	6895.4	2
2	130614	6904	30
2	130947	6923	26
2	131120	6931.6	38
2	131142	6932.6	6
2	131212	6935.8	6
2	131323	6941.8	1
2	131547	6954.2	16
2	131578	6955.6	4
2	131842	6969.2	12
2	131922	6973.2	9
2	132084	6981.8	73
2	132112	6983	4
2	132362	6996.6	10
2	132474	7002.6	43
2	132780	7019.4	57
2	132884	7024.2	3
2	133322	7047	13
2	133522	7056.6	33
2	133732	7068	38
2	133783	7071	4
2	134074	7086.8	19
2	134470	7107.6	20
2	134635	7115.8	1
2	134687	7118.2	14
2	134698	7119	2
2	134861	7127.2	62
2	134963	7132.8	5
2	135030	7136.2	5
2	135052	7137.6	9
2	135448	7158.2	23
2	135534	7163.2	32
2	135730	7173.2	15
2	135757	7174.8	12
2	135778	7176	4
2	135971	7185.4	14
2	136100	7192.6	31
2	136216	7199	13
2	136602	7218.4	23
2	136791	7227.4	39
2	136918	7234.4	1
2	137061	7242	1
2	137202	7249.6	5
2	137322	7256.6	54
2	137416	7261.6	13
2	137493	7266	23
2	137739	7278.8	28
2	137843	7285	26
2	137921	7289.4	3
2	138154	7302.2	5
2	138216	7305.4	9
2	138264	7307.6	1
2	138492	7319.4	19
2	138956	7343.4	11
2	139228	7358.2	23
2	139307	7362.4	3
2	139358	7365	1
2	139389	7366.8	1
2	139487	7372.2	1
2	139546	7375.6	3
2	139802	7388.8	72
2	139916	7394	20
2	140002	7399	23
2	140020	7399.8	3
2	140119	7405.6	14
2	140176	7408.6	3
2	140254	7413	12
2	140392	7420.2	55
2	140531	7428	42
2	140552	7429	5
2	140896	7447.2	102
2	141196	7461.8	37
2	141315	7468.6	12
2	141340	7469.8	2
2	141450	7475.6	52
2	141717	7489.4	24
2	141746	7490.8	6
2	141924	7500.2	7
2	142094	7509.2	45
2	142328	7521	50
2	142592	7535.2	7
[...]
5	66736	3533	8
5	66862	3539.2	19
5	66995	3546.2	18
5	67082	3551.2	1
5	67163	3555.2	14
5	67192	3556.6	5
5	67312	3562.4	10
5	67374	3565.2	25
5	67473	3570	26
5	67499	3571.4	2
5	67698	3582	24
5	67832	3590	67
5	68016	3599.8	37
5	68317	3614.6	30
5	68548	3625.8	14
5	68620	3629.4	8
5	68656	3631.2	13
5	68703	3634.4	8
5	68799	3639.6	14
5	68919	3646	10
5	68984	3649.6	4
5	69153	3658	35
5	69186	3660.4	2
5	69334	3669	30
5	69402	3672.2	10
5	69512	3677.4	3
5	70013	3703.6	11
5	70318	3718.8	10
5	70514	3728.4	35
5	70632	3734.6	3
5	70742	3740.6	55
5	70896	3748.8	15
5	70911	3749.8	4
5	70941	3751.6	7
5	71031	3756	40
5	71192	3765	5
5	71459	3778.8	55
5	71606	3786.2	4
5	72243	3818.8	39
5	72256	3819.6	2
5	72370	3825.2	40
5	72670	3841.2	17
5	72837	3850.6	3
5	72857	3852	12
5	72946	3857	1
5	73140	3867.4	31
5	73216	3871	21
5	73242	3872.2	2
5	73388	3880	12
5	73420	3881.4	8
5	73510	3885.8	25
5	73600	3890	3
5	73726	3897.2	23
5	73780	3900	6
5	74022	3912.4	10
5	74056	3914	4
5	74061	3914.4	3
5	74204	3922.6	69
5	74372	3931	64
5	74478	3936.2	16
5	74684	3948.2	18
5	74850	3957.6	8
5	75002	3965.2	33
5	75057	3968.2	3
5	75080	3969.6	1
5	75280	3979.2	42
5	75351	3983.4	19
5	75382	3985.4	12
5	75554	3994.4	36
5	75727	4003.6	23
5	75781	4006.2	13
5	75791	4006.8	2
5	75868	4011	23
5	75955	4016.2	21
5	76152	4026.6	47
5	76223	4030.4	14
5	76468	4043.8	12
5	76514	4046	18
5	76726	4056.8	48
5	76764	4059	16
5	77105	4077.8	59
5	77134	4079.4	1
5	77239	4084.6	31
5	77442	4095.4	59
5	77550	4100.8	45
5	77554	4101	1
5	77597	4103.2	1
5	77689	4108.2	20
5	77764	4111.6	29
5	77768	4111.8	1
5	77951	4121.4	17
5	78102	4129.4	31
5	78205	4135.4	19
5	78232	4137	9
5	78243	4137.6	2
5	78407	4147.2	18
5	78410	4147.4	1
5	78604	4157.6	13
5	78682	4161.4	8
5	78842	4170	29
5	78964	4176	40
5	79045	4180.2	11
5	79196	4188.8	19
5	79284	4193.6	18
5	79608	4210.6	10
5	79624	4211.4	3
5	79777	4219.6	42
5	79814	4221.6	3
5	80022	4232.2	4
5	80065	4234.2	5
5	80194	4240.8	22
5	80228	4242.8	9
5	80328	4248.2	9
5	80532	4259.2	4
5	80832	4276.4	87
5	81007	4285.4	46
5	81034	4286.8	8
5	81214	4297.2	17
5	81252	4299	2
5	81534	4313.8	15
5	81539	4314	1
5	81774	4326.8	17
5	81950	4336	45
5	81968	4336.8	4
5	81995	4338.8	10
5	82047	4341.4	23
5	82070	4342.6	6
5	82246	4352.6	27
5	82311	4356.2	7
5	82483	4365.6	3
5	82740	4379.4	19
5	82870	4386.2	11
5	83040	4394.6	1
5	83126	4399	6
5	83161	4400.8	9
5	83175	4401.8	4
5	83258	4406.2	9
5	83290	4408	3
5	83349	4411.4	5
5	83394	4414.2	9
5	83558	4422.6	42
5	83658	4428.2	5
5	83745	4433	4
5	83798	4436.2	15
5	83861	4439.6	6
5	83914	4442.2	3
5	83974	4445.6	17
5	84204	4457.8	13
5	84346	4464.8	8
5	84373	4466.4	5
5	84386	4467	3
5	84516	4473.8	61
5	84816	4489.6	59
5	84865	4492	16
5	85208	4509.8	16
5	85619	4531	21
5	85662	4533.4	15
5	85680	4534.2	4
5	86263	4564.4	3
5	86296	4566.4	4
5	86424	4573.6	7
5	86490	4577.2	9
5	86684	4587.2	77
5	86737	4590	15
5	86820	4594.4	21
5	87086	4608.8	21
5	87104	4610	6
5	87176	4614	29
5	87307	4620.8	14
5	87425	4626.6	2
5	87440	4627.6	2
5	87491	4630	15
5	87604	4636	1
5	87756	4643.6	39
5	87806	4647	4
5	87974	4655.8	16
5	88064	4660.4	18
5	88188	4666.2	11
5	88434	4679.6	74
5	88746	4694.8	6
5	88905	4703	28
5	89080	4712.4	26
5	89228	4720.6	41
5	89318	4724.8	32
5	89352	4726.8	7
5	89524	4737	9
5	89638	4742.2	24
5	89778	4750	69
5	89798	4751	5
5	89930	4758.6	18
5	89984	4762	15
5	90023	4764	9
5	90100	4767.8	18
5	90175	4771.6	4
5	90317	4779.2	18
5	90446	4786	11
5	90518	4790.2	40
5	90561	4792.4	3
5	90708	4800.4	19
5	90770	4804	27
5	90782	4804.6	3
5	90830	4807.6	19
5	90842	4808.2	3
5	91070	4819.6	30
5	91109	4821.8	3
5	91111	4822	1
5	91182	4826	3
5	91574	4846.2	24
5	91578	4846.4	1
5	91629	4849.4	8
5	91664	4851	14
5	91910	4864.6	20
5	91988	4868.8	29
5	92080	4873.8	11
5	92256	4883	14
5	92389	4890.8	2
5	92444	4893.6	21
5	92532	4897.8	40
5	92597	4901.4	30
5	92778	4911.6	2
5	93072	4926.4	11
5	93410	4943.4	32
5	93528	4949.4	1
5	93571	4952	13
5	93622	4955	4
5	93749	4961.2	15
5	93932	4971	9
5	93970	4972.8	8
5	94031	4976.4	32
5	94160	4982.6	4
5	94186	4984.2	12
5	94217	4986.4	9
5	94390	4995.2	31
5	94513	5001.6	8
5	94534	5002.8	11
5	94592	5006	6
5	94626	5007.6	9
5	94680	5010.2	5
5	94790	5015.6	1
5	94882	5019.8	11
5	94930	5022.4	16
5	95028	5028.4	33
5	95151	5035	51
5	95208	5038.4	29
5	95254	5041.2	16
5	95516	5054.6	43
5	95537	5055.8	11
5	95615	5060	3
5	95886	5074.4	12
5	95950	5077.4	4
5	96042	5081.6	20
5	96135	5087	14
5	96265	5093.8	3
5	96282	5095	1
5	96456	5105.8	51
5	96485	5107.2	5
5	96742	5120.8	49
5	96802	5124	3
5	96806	5124.2	1
5	97226	5144.6	65
5	97304	5149	19
5	97358	5151.8	5
5	97402	5154.2	2
5	97474	5158.2	10
5	97582	5163.8	5
5	97603	5164.8	7
5	97866	5179.4	16
5	97880	5180	5
5	97928	5182.6	25
5	98398	5206.8	9
5	98857	5232	41
5	99184	5248.8	2
5	99486	5263.6	17
5	99663	5273.4	3
5	99706	5275.6	13
5	99833	5282.8	8
5	99868	5285	9
5	99924	5288	26
5	100420	5312.6	13
5	100483	5315.8	9
5	100574	5320.4	1
5	100630	5323.4	3
5	100874	5336.4	24
5	100897	5337.8	3
5	100998	5343	22
5	101037	5345.6	4
5	101114	5349.8	41
5	101178	5352.8	19
5	101225	5355.6	3
5	101287	5359	5
5	101385	5364.2	15
5	101387	5364.4	1
5	101525	5371.4	10
5	101922	5392	7
5	102038	5398.8	14
5	102172	5406.2	39
5	102244	5409.8	3
5	102376	5416.6	34
5	102586	5427.4	19
5	102598	5428	4
5	102706	5433.6	29
5	102936	5446	1
5	103110	5455.4	1
5	103160	5458	15
5	103250	5462.4	21
5	103382	5468.8	33
5	103511	5475.4	18
5	103591	5479.2	5
5	103730	5486.4	1
5	103860	5492.8	12
5	103989	5499.8	21
5	104168	5508.6	29
5	104220	5511.6	9
5	104290	5515.2	11
5	104376	5519.2	3
5	104681	5535.6	15
5	104740	5538.6	1
5	104772	5540	4
5	104854	5544.6	1
5	104900	5546.8	8
5	105016	5552.4	12
5	105201	5562.4	17
5	105254	5565.2	8
5	105630	5585.2	62
5	105897	5597.6	25
5	106009	5603.8	17
5	106109	5609.6	43
5	106184	5613.6	23
5	106211	5614.8	5
5	106263	5617.8	7
5	106420	5626.6	30
5	106502	5630.8	3
5	106716	5642.8	36
5	106831	5649.6	62
5	106873	5651.8	1
5	106991	5658.4	1
5	107082	5663.6	1
5	107170	5668.2	17
5	107252	5672.8	18
5	107342	5678.2	15
5	107432	5683	23
5	107609	5692.6	11
5	107688	5696.6	7
5	107736	5699.2	11
5	107939	5710	13
5	108104	5718.8	55
5	108226	5725.4	43
5	108814	5757	22
5	108848	5758.6	15
5	108873	5760.4	15
5	108978	5766.6	44
5	109059	5770.8	14
5	109064	5771	1
5	109093	5773	17
5	109156	5776.8	7
5	109310	5784.6	7
5	109434	5791.4	17
5	109594	5800	21
5	109854	5813.8	1
5	109969	5820	46
5	110179	5830.8	10
5	110257	5834.8	1
5	110400	5842.8	32
5	110707	5859.4	8
5	110860	5867.4	13
5	111045	5877	3
5	111107	5880.6	10
5	111178	5884.4	37
5	111285	5890.6	27
5	111408	5896.6	17
5	111523	5903	5
5	111556	5904.8	6
5	111611	5908	2
5	111674	5911	3
5	111758	5915.2	8
5	111892	5921.4	46
5	111958	5924.8	7
5	112003	5927.4	1
5	112098	5933.6	30
5	112277	5943	1
5	112488	5954.2	38
5	112546	5957.6	33
5	112626	5961.6	23
5	112730	5966.4	25
5	112868	5973	52
5	112963	5978.2	26
5	112988	5979.6	11
5	113119	5987	32
5	113165	5989.6	2
5	113270	5994.8	16
5	113322	5997.2	14
5	113398	6001.4	33
5	113504	6006.6	50
5	113530	6008.2	5
5	113686	6017	49
5	113785	6022.4	28
5	113894	6028.4	11
5	114195	6043.6	20
5	114229	6045.6	19
5	114357	6052.2	22
5	114464	6057.6	33
5	114823	6077	5
5	114885	6081	26
5	114982	6086.4	18
5	115112	6092.8	49
5	115296	6102.6	39
5	115378	6107.2	6
5	115550	6115.4	40
5	115726	6125	61
5	115855	6131.4	25
5	116000	6138.8	3
5	116037	6140.6	11
5	116207	6150.2	1
5	116405	6160.4	44
5	116470	6163.6	6
5	116530	6167	13
5	116708	6176.8	18
5	116749	6179.2	19
5	116832	6183.6	5
5	116910	6187.6	7
5	116988	6192.6	33
5	117174	6202	15
5	117252	6206.4	27
5	117374	6212.4	22
5	117792	6234.4	4
5	117958	6243.6	1
5	118015	6246.8	2
5	118120	6252.2	1
5	118422	6267.8	1
5	118523	6272.8	15
5	118568	6275.2	9
5	118725	6282.6	27
5	118834	6288.2	25
5	118930	6293.4	25
5	118998	6296.8	28
5	119095	6301.4	3
5	119170	6305.4	36
5	119209	6307.6	14
5	119244	6309.6	1
5	119319	6313.4	8
5	119406	6318.2	7
5	119414	6318.6	2
5	119477	6322.2	9
5	119599	6328.8	31
5	119742	6336.6	10
5	120078	6353.2	7
5	120120	6355.6	12
5	120174	6358.4	22
5	120178	6358.6	1
5	120274	6363	40
5	120386	6368.8	5
5	120544	6378	34
5	120708	6386	1
5	120798	6390.8	7
5	120940	6398	24
5	120970	6399.4	1
5	121022	6402.2	26
5	121032	6402.6	2
5	121174	6410.4	15
5	121202	6412	14
5	121316	6418	12
5	121330	6418.6	5
5	121422	6423.2	11
5	121569	6430.4	14
5	121590	6431.4	2
5	121828	6443.2	45
5	122051	6455.2	12
5	122124	6459.6	40
5	122190	6463.4	8
5	122274	6467.8	27
5	122398	6474.8	20
5	122545	6483.2	12
5	122855	6499.2	17
5	123012	6507.8	51
5	123070	6510.6	4
5	123184	6517	3
5	123255	6520.2	1
5	123324	6523.8	3
5	123534	6534.6	27
5	123749	6546.8	92
5	123842	6551.4	19
5	123926	6556	6
5	124039	6563	1
5	124054	6563.8	3
5	124119	6567	15
5	124174	6570	15
5	124251	6574	19
5	124589	6591.8	26
5	124714	6597.8	8
5	124760	6600.4	5
5	124902	6608.2	7
5	124976	6611.8	1
5	125062	6615.8	1
5	125077	6616.6	5
5	125156	6620.8	3
5	125214	6623.8	10
5	125494	6637.6	21
5	125670	6646.6	68
5	125943	6660	1
5	126134	6670.4	6
5	126231	6676	12
5	126276	6678.4	2
5	126663	6698.8	21
5	126706	6701	9
5	126933	6712.2	51
5	127050	6718.8	4
5	127054	6719	1
5	127136	6723.2	34
5	127218	6727	15
5	127410	6737.4	11
5	127720	6753.6	2
5	127870	6761	1
5	127967	6766.4	15
5	128325	6785.4	36
5	128424	6790.4	15
5	128454	6791.8	4
5	128525	6795.4	3
5	128712	6804.8	89
5	128940	6816.4	86
5	129041	6821.4	1
5	129067	6823.2	9
5	129097	6824.8	14
5	129265	6834.6	11
5	129343	6839.2	5
5	129489	6846.8	10
5	129587	6852.2	24
5	129728	6859.2	8
5	129838	6865.4	18
5	129956	6870.8	3
5	130048	6875	39
5	130070	6876	5
5	130078	6876.4	1
5	130160	6880.6	12
5	130320	6889	17
5	130401	6893.8	7
5	130426	6895	10
5	130512	6899	36
5	130554	6901	7
5	130656	6906.6	25
5	130869	6919.4	68
5	131036	6927.8	48
5	131194	6935	9
5	131454	6949.2	74
5	131520	6952.6	3
5	131570	6955.2	10
5	131686	6961	31
5	131814	6968	29
5	132348	6995.6	1
5	132388	6998.2	16
5	132507	7004.2	13
5	132596	7008.6	17
5	132852	7022.8	34
5	133118	7037.4	132
5	133281	7044.8	5
5	133296	7045.4	4
5	133438	7052.8	45
5	133446	7053.2	3
5	133671	7064.2	76
5	133776	7070.4	20
5	133889	7077.2	41
5	134025	7084.4	1
5	134152	7091.2	7
5	134298	7098.2	7
5	134339	7100.4	11
5	134442	7105.6	29
5	134488	7108.4	8
5	134742	7121	15
5	134924	7130.6	15
5	134951	7132	3
5	134976	7133.4	6
5	135225	7146	39
5	135476	7160	17
5	135582	7165.8	26
5	135850	7179.6	30
5	135946	7184	35
5	136019	7187.8	24
5	136372	7206.8	71
5	136615	7219.2	7
5	136632	7220	7
5	136698	7223	3
5	136706	7223.4	2
5	136828	7229.4	20
5	137021	7239.2	48
5	137233	7251.2	7
5	137388	7260	2
5	137656	7274.8	77
5	137682	7276	1
5	137882	7287	15
5	137936	7290.2	2
5	137947	7291	2
5	138034	7295.4	13
5	138108	7300	33
5	138428	7316.4	33
5	138506	7320	5
5	138558	7323.2	4
5	138765	7333.8	31
5	138770	7334	1
5	138817	7336.6	7
5	138982	7344.6	10
5	139190	7355.8	1
5	139288	7361.4	5
5	139376	7366.2	11
5	139670	7381.6	9
5	139874	7392	19
5	140454	7423.4	15
5	140538	7428.4	4
5	140634	7432.8	38
5	140652	7434	10
5	140916	7448.4	12
5	140982	7451.4	29
5	141102	7457	1
5	141262	7465.6	1
5	141502	7478.4	21
5	141598	7483.2	5
5	141670	7486.8	15
5	141732	7490.2	8
5	141854	7496.6	58
5	141911	7499.4	3
5	141993	7504.2	40
5	142125	7511.2	7
5	142160	7513	11
5	142191	7514.6	1
5	142218	7516	8
5	142338	7521.4	4
5	142442	7527.6	57
5	142536	7532.6	9
5	142614	7536.2	6
5	142729	7542.6	6
5	142733	7543	2
5	142802	7547.4	12
5	142814	7548	4
5	142953	7555.6	36
5	143018	7559.2	3
5	143072	7562.4	12
5	143101	7563.8	7
5	143155	7566.8	26
5	143206	7569.6	12
5	143358	7578.6	7
5	143495	7586.4	20
5	143668	7595	22
5	143788	7601.6	8
5	143894	7606.8	7
5	144034	7613.6	10
5	144077	7616	2
5	144147	7620	23
5	144362	7631.2	48
5	144542	7640	22
5	144756	7652	4
5	144902	7659.6	12
5	144996	7664.4	14
5	145134	7671.8	24
5	145340	7681.8	5
5	145398	7684.8	25
5	145468	7688.2	29
5	145771	7704.4	12
5	145923	7712.6	74
5	145942	7713.6	2
5	146204	7727.8	3
5	146320	7734.2	9
5	146372	7737.6	3
5	146381	7738.4	5
5	146592	7749.6	1
5	146911	7766.8	62
5	146928	7767.8	3
5	147058	7775.4	16
5	147141	7780	3
5	147174	7782.2	11
5	147187	7783	3
5	147308	7788.6	39
5	147356	7790.8	5
5	147404	7793.4	4
5	147511	7798.8	1
5	147539	7800.4	6
5	147612	7805	41
5	147696	7810.6	13
5	147873	7820.4	19
5	147934	7823.6	2
5	148136	7834.8	3
5	148290	7843.2	21
5	148382	7848.2	41
5	148492	7854	1
5	148564	7857.6	13
5	148586	7859	6
5	148638	7862.2	4
5	148674	7863.8	4
5	148773	7869	21
5	148882	7874.6	32
5	148938	7877.6	11
5	149121	7886.8	1
5	149262	7894	49
5	149400	7901.8	20
5	149535	7909.2	71
5	149753	7919.6	58
5	149762	7920	2
5	149840	7924	23
5	149862	7925	5
5	150123	7939.2	5
5	150188	7942.6	10
5	150214	7944	5
5	150342	7951.4	68
5	150419	7955.6	28
5	150528	7962.2	5
5	150712	7971.4	54
5	150723	7972.2	4
5	150725	7972.4	1
5	150833	7978.4	15
5	150840	7979	2
5	150889	7981.8	3
5	151080	7991.8	17
5	151178	7996.6	41
5	151231	7999.4	13
5	151308	8003.4	10
5	151415	8009.6	37
5	151695	8025.6	1
5	151840	8033.6	3
5	152173	8050.8	44
5	152320	8058.6	68
5	152596	8073.8	51
5	152707	8080	7
5	152812	8085.8	11
5	152893	8090.2	32
5	153006	8096.4	3
5	153014	8096.8	3
5	153264	8109	13
5	153353	8114.2	14
5	153400	8117.2	12
5	153532	8123.6	51
5	153709	8132.6	12
5	153900	8142	33
5	153924	8143	5
5	153978	8146.2	9
5	154286	8162.6	47
5	154342	8165.6	25
5	154450	8170.6	25
5	154588	8178.2	1
5	154807	8189.4	37
5	154898	8194.4	24
5	154973	8198.4	6
5	155042	8202	5
5	155142	8207	27
5	155191	8209.8	9
5	155360	8219.6	13
5	155439	8223.8	7
5	155560	8230.4	65
5	155624	8233.6	9
5	155740	8239.8	1
5	155794	8242.4	15
5	155893	8247.6	51
5	155978	8251.8	1
5	156078	8256.8	35
5	156115	8259	1
5	156191	8262.8	13
5	156486	8278.2	41
5	156517	8280.2	9
5	156628	8286.2	13
5	156854	8298.4	48
5	156900	8300.6	20
5	157134	8312.8	21
5	157200	8316.6	1
5	157265	8319.8	16
5	157378	8325.8	10
5	157489	8332.6	24
5	157531	8334.6	12
5	157859	8352.6	12
5	158239	8373.2	6
5	158290	8376	13
5	158396	8381.2	34
5	158426	8382.6	7
5	158479	8385.4	13
5	158818	8404.4	4
5	158848	8405.8	8
5	158896	8408.2	1
5	158990	8413	23
5	159064	8416.8	16
5	159097	8418.8	18
5	159173	8423.2	9
5	159210	8425.4	6
5	159380	8434.2	10
5	159400	8435.2	9
5	159563	8444.6	3
5	159650	8449.2	30
5	159666	8450	6
5	159810	8457.8	40
5	159912	8463	8
5	160111	8472.8	5
5	160247	8479.6	16
5	160368	8486.2	16
5	160414	8488.4	15
5	160537	8495.6	6
5	160544	8496.2	3
5	160648	8501.8	1
5	160788	8509.4	1
5	161048	8522.8	21
5	161083	8525.2	5
5	161241	8533.6	22
5	161276	8535.6	12
5	161379	8541	8
5	161459	8545.2	23
5	161461	8545.4	1
5	161485	8546.8	9
5	161546	8550.4	1
5	161594	8552.6	8
5	161736	8559.8	3
5	161750	8560.8	8
5	161780	8562.2	10
5	161972	8572.4	62
5	162034	8576	31
5	162115	8580.6	14
5	162322	8591.4	28
5	162402	8595.8	22
5	162459	8598.8	17
5	162522	8602.2	15
5	162578	8604.8	7
5	162666	8609.6	6
5	162700	8611.6	7
5	162860	8620	12
5	162896	8621.6	13
5	163030	8628.6	51
5	163194	8637.4	36
5	163369	8647.4	11
5	163548	8656.6	7
5	163658	8662.4	21
5	163903	8675.6	13
5	163916	8676.2	2
5	163951	8678.6	10
5	164027	8683.2	10
5	164089	8686.8	3
5	164215	8693	2
5	164256	8695	5
5	164670	8718.2	16
5	164712	8720.2	16
5	164780	8723.2	1
5	164916	8730.2	1
5	165143	8743.4	43
5	165261	8749.4	40
5	165330	8753	31
5	165464	8759.6	9
5	165551	8765	5
5	165562	8765.6	4
5	165615	8768.6	27
5	165889	8783.6	52
5	166159	8797	39
5	166500	8815.2	2
5	166544	8817.6	4
5	166685	8825	8
5	166763	8829.6	1
5	166833	8833.6	1
5	166902	8837	9
5	166964	8840.4	29
5	167441	8864.6	21
5	167504	8868.2	3
5	167522	8869	2
5	167560	8870.8	11
5	167659	8875.8	6
5	167746	8880.8	11
5	167989	8894	12
5	168174	8904.4	21
5	168348	8914.8	3
5	168564	8925.2	9
5	168815	8938	3
5	168867	8941	9
5	168996	8947.6	27
5	169060	8951.6	31
5	169355	8967.2	1
5	169389	8969	7
5	169398	8969.4	2
5	169413	8970.2	7
5	169502	8975	24
5	169563	8978	14
5	169646	8982.2	10
5	169675	8984	9
5	169716	8986.6	18
5	169954	8999.4	15
5	170000	9001.6	9
5	170083	9005.8	25
5	170113	9007.6	4
5	170264	9015.6	40
5	170354	9020.4	22
5	170472	9026.6	1
5	170495	9028	5
5	170632	9035.8	3
5	170775	9043.8	12
5	170809	9046.2	20
5	171003	9056	21
5	171120	9062	17
5	171334	9073.8	6
5	171532	9083.2	22
5	171552	9084.2	8
5	171571	9085.4	5
5	171693	9091.8	15
5	171916	9103.4	13
5	172184	9117.2	5
5	172458	9131	1
5	172530	9134.8	22
5	172600	9138	22
5	172904	9154.2	51
5	172908	9154.4	1
5	172912	9154.6	1
5	173099	9164.8	16
5	173128	9166.4	9
5	173210	9170.6	1
5	173252	9172.6	17
5	173261	9173.2	4
5	173296	9175	13
5	173450	9182.8	11
5	173663	9194.6	15
5	173731	9198.6	1
5	173785	9202.2	2
5	173893	9208.2	6
5	173915	9209.6	13
5	174040	9216	55
5	174218	9225.2	13
5	174294	9228.6	27
5	174363	9232.8	23
5	174556	9241.8	23
5	174925	9261.4	1
5	175080	9269.4	79
5	175098	9270.6	5
5	175103	9270.8	1
5	175134	9272.2	3
5	175198	9275.2	26
5	175612	9296	28
5	175734	9302.2	20
5	175774	9304.8	15
5	175782	9305.2	3
5	176122	9321.6	32
5	176312	9332	8
5	176457	9338.8	14
5	176645	9348	6
5	176913	9361.4	10
5	176981	9364.6	30
5	177064	9368.6	7
5	177232	9377.2	21
5	177279	9379.6	8
5	177370	9384.8	9
5	177478	9389.8	45
5	177993	9417.8	3
5	178305	9434.2	9
5	178383	9438.8	1
5	178412	9440.2	1
5	178576	9448.8	3
5	178826	9461.6	9
5	178894	9465	18
5	178961	9468.8	7
5	179108	9476	25
5	179135	9477.4	4
5	179238	9483.2	7
5	179260	9484.6	10
5	179306	9486.8	19
5	179338	9488.6	14
5	179565	9501.2	10
5	179880	9516.6	10
5	180026	9524.2	39
5	180122	9529.6	31
5	180162	9531.4	2
5	180306	9539.2	24
5	180386	9543.2	30
5	180442	9546.2	23
5	180480	9548	3
5	180491	9548.8	6
5	180526	9550.4	5
5	180590	9554.2	6
5	180678	9559	1
5	180784	9563.8	47
5	180861	9568	8
5	180928	9571	28
5	180936	9571.4	2
5	181064	9577.2	47
5	181136	9581	17
5	181244	9586.6	26
5	181366	9593	8
5	181420	9596.2	7
5	181565	9603.4	35
5	181592	9604.6	9
5	181682	9609.6	34
5	181762	9614.4	7
5	181922	9622.6	48
5	182028	9628.4	24
5	182114	9633	10
5	182182	9636.6	6
5	182204	9638	5
5	182260	9641	23
5	182338	9645.2	41
5	182410	9649.6	36
5	182508	9655.2	1
5	182554	9657.8	9
5	182614	9661	30
5	182927	9678.4	43
5	183339	9699.6	21
5	183422	9704	27
5	183484	9707	8
5	183588	9712.2	3
5	183626	9714	9
5	183700	9717.8	5
5	183757	9721	1
5	183990	9732.6	4
5	184254	9747	5
5	184371	9752.8	49
5	184511	9760.4	15
5	185113	9793.2	18
5	185192	9797.6	11
5	185332	9805	19
5	185555	9816.8	14
5	185586	9818.6	4
5	185694	9823.8	10
5	186003	9840.8	3
5	186053	9843.2	1
5	186070	9844.4	8
5	186360	9860.2	8
5	186452	9864.6	4
5	186510	9868.2	7
5	186539	9870	9
5	186558	9871.2	11
5	186608	9873.8	2
5	186682	9878	17
5	186852	9886.6	12
5	187036	9896.8	34
5	187196	9905.6	18
5	187322	9913	15
5	187366	9915	12
5	187405	9917	6
5	187427	9918.4	11
5	187493	9921.6	2
5	187636	9929.2	17
5	187690	9932.2	20
5	187856	9940.2	21
5	187913	9943.8	1
5	188007	9948.2	3
5	188090	9952.8	15
5	188158	9956.6	22
5	188290	9963.4	5
5	188447	9972.4	12
5	188575	9980.2	8
5	188616	9982.4	16
5	189049	10005.8	11
5	189168	10011.8	13
5	189268	10017	43
5	189322	10019.8	18
5	189350	10021	3
5	189390	10022.8	7
5	189428	10024.6	14
5	189441	10025.2	4
5	189534	10030.2	9
5	189574	10032.4	19
5	189691	10038.2	10
5	189828	10044.6	4
5	190019	10054.4	33
5	190064	10057.2	11
5	190196	10064	9
5	190312	10070.2	18
5	190352	10072.8	1
5	190704	10091	5
5	190895	10100.4	20
5	190944	10103.8	16
5	191125	10113.6	17
5	191272	10122.2	12
5	191453	10132	7
5	191534	10136.4	17
5	191608	10140.2	35
5	191662	10143.4	28
5	191715	10146	4
5	191730	10147	2
5	191787	10149.8	25
5	192030	10162.6	12
5	192240	10173	6
5	192276	10174.6	6
5	192468	10184.2	30
5	192648	10193.6	26
5	193045	10215.4	79
5	193062	10216.4	7
5	193438	10236.8	5
5	193572	10244.4	1
5	193661	10249.8	3
5	193964	10265.2	61
5	194220	10278.4	13
5	194486	10292	14
5	194626	10299.2	22
5	194776	10307.4	9
5	194834	10310.6	3
5	194934	10316	25
5	195002	10319.4	26
5	195150	10327.4	3
5	195162	10328	1
5	195497	10345.8	12
5	195570	10349.8	25
5	195646	10353.6	8
5	195941	10369.2	63
5	196150	10380.4	22
5	196259	10385.8	34
5	196658	10408	24
5	196870	10418.6	16
5	196902	10420	6
5	196954	10422.8	13
5	197075	10429	18
5	197182	10434.4	27
5	197600	10456.8	13
5	197743	10464.4	13
5	198130	10485.2	3
5	198150	10486.2	5
5	198168	10487	4
5	198186	10487.8	6
5	198740	10516.2	26
5	198745	10516.4	1
5	198998	10529.2	27
5	199050	10532	1
5	199099	10535	24
5	199152	10538	14
5	199235	10542	14
5	199264	10543.8	8
5	199343	10547.6	6
5	199368	10549	12
5	199456	10553.4	7
5	199628	10562.8	10

